data_str_m1_o1_o1_f0_pcu.sym.15
_audit_creation_date              2012-12-10T18:00:41-0500
_audit_creation_method            fapswitch 2.2
_symmetry_space_group_name_H-M    P1
_symmetry_Int_Tables_number       1
_space_group_crystal_system       triclinic
_cell_length_a                    26.181366
_cell_length_b                    26.181174
_cell_length_c                    26.176162
_cell_angle_alpha                 89.713524
_cell_angle_beta                  89.690808
_cell_angle_gamma                 90.224852
_cell_volume                      17942.0575699

loop_
_atom_site_label
_atom_site_type_symbol
_atom_type_description
_atom_site_fract_x
_atom_site_fract_y
_atom_site_fract_z
_atom_type_partial_charge
C1    C     C_R   0.390339 0.248742 0.250937 0.914855
C2    C     C_R   0.610133 0.249426 0.251057 0.938369
C3    C     C_R   0.972726 0.729658 0.206019 0.265911
C4    C     C_R   0.026157 0.771664 0.710558 0.241279
C5    C     C_R   0.973891 0.212022 0.275822 0.275532
C6    C     C_R   0.024665 0.720180 0.213089 0.261575
C7    C     C_R   0.973917 0.280094 0.786383 0.255488
C8    C     C_R   0.781600 0.716031 0.025316 0.297830
C9    C     C_R   0.215977 0.281270 0.974784 0.276511
C10   C     C_R   0.703666 0.228917 0.028549 0.285876
C11   C     C_R   0.272995 0.792471 0.972681 0.273884
C12   C     C_R   0.225898 0.289773 0.026404 0.258661
C13   C     C_R   0.249283 0.748858 0.389933 0.935272
C14   C     C_R   0.790922 0.726161 0.973733 0.305381
C15   C     C_R   0.283000 0.785129 0.024819 0.249466
C16   C     C_R   0.710725 0.218846 0.976170 0.249961
C17   C     C_R   0.220681 0.714787 0.974705 0.283791
C18   C     C_R   0.779994 0.283496 0.024629 0.266999
C19   C     C_R   0.289181 0.222925 0.973742 0.284069
C20   C     C_R   0.730041 0.793979 0.027742 0.271653
C21   C     C_R   0.769408 0.291294 0.973544 0.244108
C22   C     C_R   0.211702 0.724534 0.026153 0.275961
C23   C     C_R   0.720949 0.787115 0.975644 0.252565
C24   C     C_R   0.749371 0.249427 0.610058 0.941546
C25   C     C_R   0.280805 0.214004 0.025999 0.254748
C26   C     C_R   0.710074 0.473810 0.724503 0.299638
C27   C     C_R   0.275292 0.525819 0.288301 0.293300
C28   C     C_R   0.726546 0.473332 0.291420 0.263908
C29   C     C_R   0.291155 0.526475 0.726446 0.269324
C30   C     C_R   0.284802 0.474427 0.278934 0.294192
C31   C     C_R   0.719268 0.525652 0.715169 0.296009
C32   C     C_R   0.283167 0.474701 0.716471 0.246518
C33   C     C_R   0.716682 0.525207 0.283419 0.243275
C34   C     C_R   0.473624 0.275215 0.290659 0.294171
C35   C     C_R   0.609910 0.749458 0.249671 0.917674
C36   C     C_R   0.526963 0.706981 0.728677 0.286920
C37   C     C_R   0.473251 0.708814 0.273439 0.270262
C38   C     C_R   0.526930 0.274347 0.708643 0.271358
C39   C     C_R   0.475300 0.715288 0.718145 0.274599
C40   C     C_R   0.525655 0.284543 0.281940 0.284515
C41   C     C_R   0.474959 0.283861 0.716765 0.248080
C42   C     C_R   0.525157 0.716884 0.283314 0.240354
C43   C     C_R   0.273717 0.708349 0.526719 0.290370
C44   C     C_R   0.712315 0.276091 0.474302 0.296518
C45   C     C_R   0.709207 0.725730 0.526769 0.273365
C46   C     C_R   0.390217 0.249649 0.749295 0.922598
C47   C     C_R   0.274636 0.291055 0.473213 0.271319
C48   C     C_R   0.721870 0.285426 0.525657 0.300328
C49   C     C_R   0.283313 0.716768 0.474666 0.276527
C50   C     C_R   0.284242 0.282828 0.525142 0.247306
C51   C     C_R   0.717386 0.716079 0.474796 0.241796
C52   C     C_R   0.244205 0.552967 0.253342 -0.373134
C53   C     C_R   0.745941 0.447058 0.755040 -0.368590
C54   C     C_R   0.251957 0.553503 0.752339 -0.357897
C55   C     C_R   0.751911 0.446276 0.251854 -0.381308
C56   C     C_R   0.745081 0.554327 0.753550 -0.372918
C57   C     C_R   0.749699 0.750447 0.609907 0.928455
C58   C     C_R   0.246225 0.445731 0.254013 -0.376673
C59   C     C_R   0.751710 0.553409 0.252270 -0.369708
C60   C     C_R   0.252442 0.446407 0.751745 -0.362935
C61   C     C_R   0.553238 0.744081 0.758316 -0.365167
C62   C     C_R   0.447088 0.244968 0.254372 -0.364987
C63   C     C_R   0.553760 0.247877 0.747708 -0.359426
C64   C     C_R   0.446294 0.748340 0.247927 -0.364328
C65   C     C_R   0.554338 0.246443 0.255493 -0.369257
C66   C     C_R   0.445961 0.742802 0.755031 -0.370028
C67   C     C_R   0.553535 0.747860 0.248257 -0.363354
C68   C     C_R   0.249414 0.250483 0.390054 0.931285
C69   C     C_R   0.446611 0.248289 0.747210 -0.362480
C70   C     C_R   0.747277 0.245070 0.447001 -0.369176
C71   C     C_R   0.244188 0.745227 0.553087 -0.364617
C72   C     C_R   0.247897 0.252238 0.446324 -0.359946
C73   C     C_R   0.748386 0.751787 0.553737 -0.366463
C74   C     C_R   0.245858 0.744050 0.445792 -0.365899
C75   C     C_R   0.746768 0.246645 0.554226 -0.376351
C76   C     C_R   0.748041 0.751447 0.446605 -0.366701
C77   C     C_R   0.248413 0.252663 0.553466 -0.363452
C78   C     C_R   0.755384 0.053405 0.245693 -0.366526
C79   C     C_R   0.250661 0.390104 0.750327 0.921458
C80   C     C_R   0.251643 0.946194 0.747143 -0.349155
C81   C     C_R   0.252682 0.053181 0.257281 -0.342230
C82   C     C_R   0.753738 0.946659 0.751442 -0.360757
C83   C     C_R   0.252046 0.053427 0.747903 -0.379282
C84   C     C_R   0.753742 0.946189 0.245390 -0.380961
C85   C     C_R   0.752552 0.053797 0.752154 -0.381342
C86   C     C_R   0.254330 0.945916 0.255520 -0.377464
C87   C     C_R   0.053430 0.754906 0.243706 -0.357463
C88   C     C_R   0.946221 0.252154 0.748910 -0.351223
C89   C     C_R   0.053085 0.743638 0.747937 -0.341317
C90   C     C_R   0.750332 0.609861 0.250595 0.922774
C91   C     C_R   0.946634 0.248740 0.246781 -0.356697
C92   C     C_R   0.053422 0.251499 0.748798 -0.381281
C93   C     C_R   0.946065 0.754961 0.245565 -0.382526
C94   C     C_R   0.053810 0.248157 0.247837 -0.378690
C95   C     C_R   0.945876 0.745343 0.746782 -0.376726
C96   C     C_R   0.754054 0.755035 0.946858 -0.359299
C97   C     C_R   0.252524 0.251285 0.053788 -0.351608
C98   C     C_R   0.742555 0.252857 0.946866 -0.345383
C99   C     C_R   0.248387 0.753520 0.053311 -0.356063
C100  C     C_R   0.251767 0.251481 0.946559 -0.381055
C101  C     C_R   0.248545 0.609694 0.250810 0.910363
C102  C     C_R   0.753870 0.753315 0.054252 -0.381118
C103  C     C_R   0.247781 0.752362 0.946159 -0.378700
C104  C     C_R   0.744356 0.254588 0.054166 -0.379149
C105  C     C_R   0.609735 0.748617 0.752030 0.902494
C106  C     C_R   0.749096 0.390339 0.751262 0.915717
C107  C     C_R   0.749114 0.610135 0.750578 0.942015
C108  C     C_R   0.249398 0.389921 0.250740 0.941881
C109  C     C_R   0.750530 0.390093 0.250418 0.934475
C110  C     C_R   0.250393 0.609871 0.750574 0.935002
C111  C     C_R   0.890221 0.751056 0.249277 0.924288
C112  C     C_R   0.109720 0.250332 0.749737 0.916049
C113  C     C_R   0.249672 0.750848 0.109797 0.918840
C114  C     C_R   0.748422 0.250513 0.890400 0.925790
C115  C     C_R   0.109658 0.748602 0.749657 0.923079
C116  C     C_R   0.249712 0.250669 0.609829 0.922199
C117  C     C_R   0.890216 0.249746 0.249238 0.919588
C118  C     C_R   0.751081 0.751356 0.890270 0.944183
C119  C     C_R   0.250471 0.250239 0.110173 0.926855
C120  C     C_R   0.889802 0.250368 0.749787 0.927306
C121  C     C_R   0.110076 0.751124 0.248550 0.942493
C122  C     C_R   0.250363 0.250336 0.890269 0.916674
C123  C     C_R   0.750619 0.750506 0.110211 0.929991
C124  C     C_R   0.109980 0.249559 0.249661 0.932938
C125  C     C_R   0.889970 0.749057 0.749237 0.931678
C126  C     C_R   0.748815 0.251045 0.110051 0.932312
C127  C     C_R   0.749472 0.750285 0.390128 0.916812
C128  C     C_R   0.249460 0.750368 0.890014 0.935953
C129  C     C_R   0.750830 0.890199 0.750256 0.921186
C130  C     C_R   0.250458 0.109613 0.251569 0.924732
C131  C     C_R   0.751265 0.109872 0.249046 0.940010
C132  C     C_R   0.250302 0.889824 0.749453 0.925824
C133  C     C_R   0.250481 0.109736 0.749564 0.915821
C134  C     C_R   0.750672 0.890122 0.249060 0.927111
C135  C     C_R   0.250998 0.889965 0.251159 0.931554
C136  C     C_R   0.750421 0.109996 0.750528 0.930988
C137  C     C_R   0.203664 0.471625 0.232674 0.291431
C138  C     C_R   0.609966 0.249438 0.749500 0.930954
C139  C     C_R   0.766552 0.528060 0.795409 0.271918
C140  C     C_R   0.223409 0.473395 0.788641 0.283490
C141  C     C_R   0.787772 0.526299 0.222061 0.309033
C142  C     C_R   0.777809 0.476343 0.788602 0.244158
C143  C     C_R   0.209443 0.524009 0.221900 0.242335
C144  C     C_R   0.778048 0.474620 0.213276 0.308599
C145  C     C_R   0.214418 0.525019 0.779755 0.254931
C146  C     C_R   0.470933 0.763560 0.798164 0.290455
C147  C     C_R   0.528188 0.204688 0.233798 0.270679
C148  C     C_R   0.473689 0.211264 0.776002 0.280734
C149  C     C_R   0.390055 0.749691 0.249511 0.927293
C150  C     C_R   0.526540 0.777973 0.211820 0.283828
C151  C     C_R   0.476514 0.211493 0.222495 0.242989
C152  C     C_R   0.523390 0.774760 0.793286 0.224538
C153  C     C_R   0.474647 0.786802 0.221045 0.255090
C154  C     C_R   0.525221 0.220216 0.785088 0.252645
C155  C     C_R   0.769019 0.204625 0.528070 0.281987
C156  C     C_R   0.204155 0.766121 0.471881 0.274316
C157  C     C_R   0.211188 0.224199 0.526483 0.283174
C158  C     C_R   0.777908 0.787944 0.473565 0.286148
C159  C     C_R   0.210822 0.777247 0.523701 0.246383
C160  C     C_R   0.749357 0.248746 0.390261 0.911439
C161  C     C_R   0.779578 0.210895 0.475676 0.233233
C162  C     C_R   0.786688 0.778813 0.525400 0.258819
C163  C     C_R   0.220046 0.215052 0.474884 0.254760
C164  C     C_R   0.717653 0.975032 0.216643 0.309745
C165  C     C_R   0.282085 0.025073 0.783401 0.276232
C166  C     C_R   0.228599 0.971567 0.296223 0.284286
C167  C     C_R   0.792128 0.027291 0.725938 0.275500
C168  C     C_R   0.290380 0.973389 0.773452 0.261243
C169  C     C_R   0.728055 0.026744 0.207949 0.318934
C170  C     C_R   0.784587 0.975111 0.716106 0.249289
C171  C     C_R   0.248574 0.748939 0.609717 0.911814
C172  C     C_R   0.218475 0.023948 0.289243 0.246261
C173  C     C_R   0.715668 0.025281 0.780267 0.288674
C174  C     C_R   0.283010 0.975285 0.219730 0.261760
C175  C     C_R   0.223580 0.026316 0.710449 0.279939
C176  C     C_R   0.793503 0.972862 0.270436 0.268623
C177  C     C_R   0.290990 0.026386 0.230315 0.239950
C178  C     C_R   0.725784 0.973875 0.788899 0.287165
C179  C     C_R   0.786287 0.024553 0.280057 0.253175
C180  C     C_R   0.214484 0.974138 0.718826 0.249078
C181  C     C_R   0.974964 0.784472 0.281322 0.302156
C182  C     C_R   0.390043 0.748669 0.750647 0.932791
C183  C     C_R   0.025328 0.215716 0.718947 0.276422
C184  C     C_R   0.971690 0.704573 0.772273 0.279843
C185  C     C_R   0.027192 0.273711 0.207912 0.275233
C186  C     C_R   0.973695 0.225629 0.710410 0.257464
C187  C     C_R   0.026607 0.793193 0.270609 0.285726
C188  C     C_R   0.975019 0.283628 0.215374 0.248616
C189  C     C_R   0.024081 0.711460 0.782204 0.243376
C190  C     C_R   0.025316 0.220969 0.285436 0.281681
C191  C     C_R   0.974990 0.781908 0.719042 0.259947
C192  C     C_R   0.026113 0.288663 0.777568 0.284714
H1    H     H_    0.074397 0.466166 0.185875 0.410633
H2    H     H_    0.528025 0.073053 0.194607 0.419567
H3    H     H_    0.478478 0.087782 0.837525 0.410336
H4    H     H_    0.523395 0.844610 0.090272 0.411689
H5    H     H_    0.515416 0.195797 0.112787 0.378618
H6    H     H_    0.496337 0.888415 0.815336 0.387174
H7    H     H_    0.504952 0.902323 0.229457 0.379871
H8    H     H_    0.490811 0.223377 0.898810 0.384313
H9    H     H_    0.819063 0.075897 0.533566 0.412421
H10   H     H_    0.072660 0.806179 0.471599 0.418891
H11   H     H_    0.087365 0.163444 0.521873 0.411137
H12   H     H_    0.808213 0.528023 0.926131 0.416091
H13   H     H_    0.843552 0.910076 0.476950 0.411806
H14   H     H_    0.196314 0.889000 0.486552 0.379549
H15   H     H_    0.893821 0.193620 0.505303 0.387899
H16   H     H_    0.903586 0.768866 0.496443 0.379609
H17   H     H_    0.222379 0.099824 0.508080 0.385173
H18   H     H_    0.599522 0.982562 0.147508 0.404923
H19   H     H_    0.353980 0.018439 0.900074 0.406455
H20   H     H_    0.171059 0.968049 0.421913 0.413787
H21   H     H_    0.919840 0.026850 0.672307 0.411676
H22   H     H_    0.400890 0.006728 0.760562 0.379950
H23   H     H_    0.161952 0.478224 0.912275 0.409868
H24   H     H_    0.707788 0.027144 0.069419 0.382291
H25   H     H_    0.794578 0.007703 0.602945 0.378011
H26   H     H_    0.102614 0.992401 0.300732 0.381558
H27   H     H_    0.595659 0.012558 0.844636 0.414426
H28   H     H_    0.351349 0.984540 0.099609 0.414800
H29   H     H_    0.161556 0.024225 0.587247 0.414917
H30   H     H_    0.918096 0.974279 0.327476 0.419561
H31   H     H_    0.398960 0.993241 0.246015 0.371974
H32   H     H_    0.728407 0.983177 0.922401 0.398130
H33   H     H_    0.791487 0.988526 0.393981 0.386428
H34   H     H_    0.908443 0.522100 0.153915 0.406733
H35   H     H_    0.097870 0.003229 0.721494 0.385542
H36   H     H_    0.982702 0.852294 0.400461 0.408648
H37   H     H_    0.019068 0.098419 0.648125 0.406712
H38   H     H_    0.967494 0.578968 0.830638 0.413457
H39   H     H_    0.026454 0.325954 0.079968 0.411777
H40   H     H_    0.007816 0.236530 0.600237 0.380275
H41   H     H_    0.010488 0.917945 0.255031 0.382888
H42   H     H_    0.007531 0.396497 0.203877 0.377415
H43   H     H_    0.990510 0.700539 0.895430 0.370852
H44   H     H_    0.012020 0.158990 0.405803 0.417156
H45   H     H_    0.889206 0.513184 0.804164 0.379833
H46   H     H_    0.983646 0.904181 0.654539 0.415498
H47   H     H_    0.023700 0.410745 0.841796 0.414114
H48   H     H_    0.973658 0.671586 0.081661 0.417340
H49   H     H_    0.991746 0.760055 0.602183 0.373364
H50   H     H_    0.991463 0.084011 0.271797 0.391235
H51   H     H_    0.989274 0.605191 0.209711 0.388270
H52   H     H_    0.998954 0.276172 0.906596 0.388760
H53   H     H_    0.846800 0.596392 0.017917 0.403189
H54   H     H_    0.098093 0.351433 0.981337 0.405695
H55   H     H_    0.578119 0.171535 0.031933 0.413100
H56   H     H_    0.188076 0.500945 0.101760 0.389621
H57   H     H_    0.323382 0.920878 0.973924 0.413283
H58   H     H_    0.237055 0.400234 0.992548 0.380163
H59   H     H_    0.924393 0.732485 0.979968 0.384643
H60   H     H_    0.395362 0.797519 0.991289 0.376476
H61   H     H_    0.699326 0.103006 0.008287 0.366511
H62   H     H_    0.159832 0.593739 0.988173 0.414906
H63   H     H_    0.901522 0.351389 0.017537 0.411806
H64   H     H_    0.412021 0.159899 0.975683 0.414713
H65   H     H_    0.675121 0.919499 0.026349 0.411498
H66   H     H_    0.752897 0.399591 0.005716 0.369422
H67   H     H_    0.797613 0.478598 0.074316 0.405136
H68   H     H_    0.084012 0.729884 0.008436 0.389765
H69   H     H_    0.607293 0.791642 0.011018 0.386478
H70   H     H_    0.278634 0.094029 0.000581 0.388718
H71   H     H_    0.588377 0.477439 0.660013 0.406303
H72   H     H_    0.339619 0.518786 0.408876 0.404622
H73   H     H_    0.670664 0.476857 0.416947 0.416455
H74   H     H_    0.415951 0.521411 0.670703 0.415916
H75   H     H_    0.419267 0.484785 0.282454 0.389066
H76   H     H_    0.717390 0.513780 0.582052 0.377279
H77   H     H_    0.289953 0.510328 0.604057 0.384057
H78   H     H_    0.099119 0.492235 0.777039 0.385221
H79   H     H_    0.606978 0.487443 0.285847 0.372241
H80   H     H_    0.475914 0.337880 0.413440 0.409160
H81   H     H_    0.525494 0.583549 0.668224 0.408093
H82   H     H_    0.474692 0.580469 0.325997 0.415305
H83   H     H_    0.524589 0.330372 0.582286 0.412100
H84   H     H_    0.494971 0.707533 0.590711 0.383291
H85   H     H_    0.508864 0.413275 0.283838 0.377632
H86   H     H_    0.510421 0.396194 0.713333 0.384269
H87   H     H_    0.487746 0.713376 0.393476 0.372564
H88   H     H_    0.331791 0.584317 0.522168 0.408361
H89   H     H_    0.464893 0.806440 0.927673 0.409907
H90   H     H_    0.592846 0.342440 0.481658 0.403680
H91   H     H_    0.582197 0.669861 0.526211 0.413750
H92   H     H_    0.331254 0.416638 0.476612 0.411874
H93   H     H_    0.716117 0.422446 0.519221 0.393024
H94   H     H_    0.407583 0.713784 0.497604 0.377569
H95   H     H_    0.396386 0.284841 0.489557 0.383534
H96   H     H_    0.714778 0.605428 0.511357 0.367969
O1    O     O_3   0.250000 0.250000 0.250000 -0.618702
O2    O     O_R   0.634200 0.719710 0.719710 -0.565160
O3    O     O_R   0.219710 0.365800 0.219710 -0.568019
O4    O     O_R   0.219710 0.634200 0.219710 -0.576804
O5    O     O_R   0.780290 0.365800 0.780290 -0.571556
O6    O     O_R   0.219710 0.365800 0.780290 -0.567569
O7    O     O_R   0.780290 0.634200 0.219710 -0.569905
O8    O     O_2   0.150962 0.413358 0.167923 -0.161068
O9    O     O_2   0.133792 0.398493 0.258764 -0.280988
O10   O     O_3   0.093699 0.477310 0.216411 -0.450693
O11   O     O_2   0.828000 0.586335 0.853216 -0.177616
O12   O     O_2   0.736310 0.596985 0.866443 -0.260152
O13   O     O_R   0.280290 0.280290 0.634200 -0.575269
O14   O     O_3   0.779027 0.516957 0.904741 -0.429547
O15   O     O_2   0.154559 0.416568 0.839025 -0.173724
O16   O     O_2   0.243299 0.411067 0.868233 -0.263824
O17   O     O_3   0.191543 0.491214 0.892132 -0.446839
O18   O     O_2   0.835038 0.583799 0.150787 -0.155817
O19   O     O_2   0.869058 0.588136 0.237671 -0.272724
O20   O     O_3   0.889470 0.508420 0.184054 -0.453264
O21   O     O_2   0.817266 0.425706 0.865653 -0.096275
O22   O     O_2   0.862569 0.417359 0.784094 -0.244881
O23   O     O_3   0.874632 0.499389 0.836241 -0.460430
O24   O     O_R   0.719710 0.719710 0.365800 -0.574244
O25   O     O_2   0.126499 0.571846 0.187899 -0.105602
O26   O     O_2   0.204897 0.588279 0.139117 -0.238434
O27   O     O_3   0.158221 0.503579 0.126217 -0.444158
O28   O     O_2   0.841369 0.421535 0.153583 -0.127211
O29   O     O_2   0.749557 0.413359 0.135992 -0.301441
O30   O     O_3   0.795390 0.496411 0.107681 -0.473238
O31   O     O_2   0.161141 0.582590 0.844251 -0.105443
O32   O     O_2   0.134516 0.583378 0.754402 -0.280330
O33   O     O_3   0.109973 0.505542 0.810580 -0.452553
O34   O     O_2   0.412377 0.827228 0.852334 -0.170531
O35   O     O_R   0.634200 0.280290 0.719710 -0.573506
O36   O     O_2   0.395011 0.736251 0.864612 -0.279284
O37   O     O_3   0.472946 0.774376 0.909333 -0.451095
O38   O     O_2   0.586484 0.145599 0.173159 -0.176542
O39   O     O_2   0.596702 0.133803 0.265037 -0.265294
O40   O     O_3   0.516485 0.095552 0.222831 -0.430856
O41   O     O_2   0.416848 0.161077 0.844831 -0.175347
O42   O     O_2   0.411426 0.131866 0.756043 -0.263632
O43   O     O_3   0.491483 0.107832 0.807876 -0.445946
O44   O     O_2   0.584473 0.848667 0.164059 -0.173281
O45   O     O_2   0.589214 0.761384 0.131237 -0.266861
O46   O     O_R   0.365800 0.719710 0.280290 -0.572661
O47   O     O_3   0.509655 0.814592 0.109450 -0.442281
O48   O     O_2   0.425095 0.135295 0.182338 -0.094666
O49   O     O_2   0.418499 0.217222 0.137408 -0.245760
O50   O     O_3   0.499872 0.163804 0.125765 -0.455435
O51   O     O_2   0.564594 0.802917 0.881087 -0.115624
O52   O     O_2   0.589844 0.855811 0.808055 -0.211733
O53   O     O_3   0.502009 0.868648 0.846986 -0.448906
O54   O     O_2   0.418779 0.842028 0.155721 -0.088863
O55   O     O_2   0.413536 0.865720 0.245948 -0.308170
O56   O     O_3   0.493939 0.892018 0.195036 -0.451211
O57   O     O_R   0.719710 0.280290 0.365800 -0.566684
O58   O     O_2   0.582548 0.155749 0.838843 -0.106173
O59   O     O_2   0.583329 0.245655 0.865161 -0.278229
O60   O     O_3   0.505368 0.189841 0.889601 -0.452070
O61   O     O_2   0.835212 0.153404 0.586054 -0.168842
O62   O     O_2   0.744802 0.132949 0.600221 -0.278569
O63   O     O_3   0.789108 0.095423 0.521046 -0.448024
O64   O     O_2   0.145592 0.827107 0.413389 -0.174988
O65   O     O_2   0.133357 0.735315 0.403243 -0.264437
O66   O     O_3   0.095056 0.777936 0.483339 -0.432394
O67   O     O_2   0.160795 0.155439 0.583184 -0.172981
O68   O     O_R   0.280290 0.719710 0.634200 -0.571678
O69   O     O_2   0.131910 0.244283 0.589180 -0.265618
O70   O     O_3   0.107534 0.193006 0.508905 -0.445926
O71   O     O_2   0.848394 0.836197 0.415721 -0.169405
O72   O     O_2   0.760892 0.868716 0.411276 -0.270799
O73   O     O_3   0.814033 0.890349 0.490902 -0.443789
O74   O     O_2   0.135156 0.818824 0.575653 -0.093043
O75   O     O_2   0.217747 0.862401 0.581326 -0.251557
O76   O     O_3   0.164246 0.874280 0.500179 -0.456549
O77   O     O_2   0.816212 0.130535 0.425291 -0.099863
O78   O     O_2   0.862812 0.210949 0.412064 -0.238815
O79   O     O_R   0.365800 0.719710 0.719710 -0.566383
O80   O     O_3   0.876699 0.161357 0.495087 -0.438858
O81   O     O_2   0.842818 0.843520 0.581027 -0.088329
O82   O     O_2   0.865515 0.753162 0.586430 -0.312412
O83   O     O_3   0.892010 0.803555 0.505663 -0.452086
O84   O     O_2   0.155512 0.161734 0.417433 -0.104839
O85   O     O_2   0.245265 0.134806 0.416935 -0.280417
O86   O     O_3   0.188880 0.110743 0.494706 -0.453032
O87   O     O_2   0.668816 0.918062 0.148953 -0.158022
O88   O     O_2   0.634391 0.916980 0.236145 -0.262508
O89   O     O_3   0.615980 0.995160 0.179210 -0.464901
O90   O     O_R   0.634200 0.280290 0.280290 -0.568613
O91   O     O_2   0.351169 0.083135 0.830300 -0.175542
O92   O     O_2   0.264854 0.083222 0.866516 -0.251947
O93   O     O_3   0.322098 0.005512 0.884163 -0.453292
O94   O     O_2   0.161315 0.911707 0.346428 -0.166784
O95   O     O_2   0.250705 0.901811 0.370270 -0.288134
O96   O     O_3   0.202253 0.980418 0.403798 -0.447504
O97   O     O_2   0.844599 0.084597 0.659375 -0.179620
O98   O     O_2   0.868321 0.093656 0.749148 -0.253532
O99   O     O_3   0.898740 0.013483 0.701140 -0.437205
O100  O     O_2   0.347531 0.916754 0.837262 -0.106076
O101  O     O_R   0.280290 0.719710 0.365800 -0.568010
O102  O     O_2   0.367929 0.910795 0.746258 -0.308710
O103  O     O_3   0.396490 0.991536 0.794891 -0.469662
O104  O     O_2   0.663378 0.079960 0.149719 -0.143167
O105  O     O_2   0.754822 0.091957 0.132289 -0.303404
O106  O     O_3   0.711977 0.007952 0.102385 -0.483153
O107  O     O_2   0.857203 0.918725 0.671653 -0.113880
O108  O     O_2   0.772220 0.914109 0.633680 -0.259930
O109  O     O_3   0.827246 0.993631 0.615514 -0.461647
O110  O     O_2   0.174915 0.077143 0.364163 -0.093677
O111  O     O_2   0.135188 0.084535 0.280112 -0.266995
O112  O     O_3   0.750000 0.750000 0.750000 -0.618335
O113  O     O_R   0.719710 0.280290 0.634200 -0.564732
O114  O     O_3   0.118680 0.003254 0.333015 -0.443599
O115  O     O_2   0.661812 0.081237 0.847252 -0.146024
O116  O     O_2   0.633393 0.082987 0.758257 -0.243155
O117  O     O_3   0.612664 0.002907 0.812098 -0.452587
O118  O     O_2   0.350262 0.918357 0.168891 -0.160041
O119  O     O_2   0.262822 0.920798 0.135857 -0.235439
O120  O     O_3   0.321330 0.998032 0.118544 -0.429993
O121  O     O_2   0.154675 0.083974 0.661751 -0.169067
O122  O     O_2   0.243173 0.090711 0.631465 -0.272853
O123  O     O_3   0.191341 0.010953 0.606402 -0.448091
O124  O     O_R   0.634200 0.719710 0.280290 -0.573985
O125  O     O_2   0.842932 0.915720 0.338592 -0.179298
O126  O     O_2   0.868616 0.905527 0.248954 -0.255438
O127  O     O_3   0.899501 0.986014 0.296663 -0.456358
O128  O     O_2   0.347019 0.081521 0.166635 -0.094865
O129  O     O_2   0.365956 0.090167 0.258035 -0.282207
O130  O     O_3   0.396844 0.008796 0.211563 -0.434467
O131  O     O_2   0.661137 0.919943 0.846043 -0.114842
O132  O     O_2   0.752313 0.911240 0.865661 -0.296756
O133  O     O_3   0.705704 0.993738 0.894140 -0.473939
O134  O     O_2   0.852519 0.082534 0.329955 -0.097168
O135  O     O_R   0.365800 0.280290 0.719710 -0.574536
O136  O     O_2   0.763978 0.079104 0.361767 -0.265727
O137  O     O_3   0.823890 0.004051 0.382181 -0.449886
O138  O     O_2   0.162015 0.917614 0.651056 -0.096028
O139  O     O_2   0.133421 0.912770 0.739856 -0.275865
O140  O     O_3   0.110781 0.992890 0.687464 -0.452802
O141  O     O_2   0.918126 0.851642 0.330869 -0.159494
O142  O     O_2   0.917824 0.764514 0.364981 -0.260314
O143  O     O_3   0.995861 0.821481 0.382661 -0.457982
O144  O     O_2   0.083294 0.168606 0.649770 -0.176067
O145  O     O_2   0.084432 0.133152 0.736404 -0.254990
O146  O     O_R   0.719710 0.719710 0.634200 -0.570077
O147  O     O_3   0.006412 0.114390 0.680138 -0.452549
O148  O     O_2   0.911631 0.654868 0.839676 -0.173712
O149  O     O_2   0.902293 0.630190 0.750378 -0.283887
O150  O     O_3   0.980405 0.596974 0.799618 -0.444879
O151  O     O_2   0.084497 0.339405 0.154434 -0.179428
O152  O     O_2   0.093729 0.249327 0.132143 -0.256755
O153  O     O_3   0.013564 0.296852 0.100937 -0.438571
O154  O     O_2   0.917655 0.160547 0.654553 -0.105840
O155  O     O_2   0.911142 0.251217 0.632204 -0.301883
O156  O     O_3   0.992145 0.202522 0.604615 -0.470331
O157  O     O_R   0.280290 0.280290 0.365800 -0.572807
O158  O     O_2   0.080192 0.851007 0.335156 -0.108614
O159  O     O_2   0.092032 0.868924 0.244263 -0.323351
O160  O     O_3   0.008247 0.899046 0.287922 -0.483209
O161  O     O_2   0.918817 0.327178 0.141860 -0.117643
O162  O     O_2   0.913714 0.366384 0.226210 -0.254916
O163  O     O_3   0.993548 0.383614 0.171340 -0.463964
O164  O     O_2   0.077173 0.636383 0.825313 -0.092175
O165  O     O_2   0.085161 0.720278 0.865084 -0.264732
O166  O     O_3   0.003780 0.667794 0.882113 -0.446154
O167  O     O_2   0.081380 0.155109 0.340485 -0.148311
O168  O     O_R   0.280290 0.365800 0.719710 -0.574857
O169  O     O_2   0.083738 0.244741 0.366688 -0.242100
O170  O     O_3   0.003359 0.191876 0.389161 -0.446572
O171  O     O_2   0.918677 0.833346 0.651788 -0.161496
O172  O     O_2   0.918400 0.864606 0.740027 -0.238594
O173  O     O_3   0.997047 0.884051 0.683769 -0.430121
O174  O     O_2   0.083886 0.336521 0.846792 -0.166188
O175  O     O_2   0.089770 0.368297 0.758719 -0.271667
O176  O     O_3   0.010348 0.392130 0.811713 -0.446513
O177  O     O_2   0.915257 0.661126 0.157069 -0.178415
O178  O     O_2   0.905454 0.750514 0.130603 -0.252138
O179  O     O_R   0.719710 0.634200 0.280290 -0.575119
O180  O     O_3   0.985889 0.702140 0.100402 -0.456896
O181  O     O_2   0.081734 0.836284 0.655463 -0.094024
O182  O     O_2   0.088593 0.745207 0.633958 -0.278668
O183  O     O_3   0.007897 0.794104 0.605257 -0.432338
O184  O     O_2   0.918439 0.156355 0.341345 -0.104513
O185  O     O_2   0.912916 0.133305 0.250837 -0.294487
O186  O     O_3   0.994114 0.107612 0.301069 -0.464655
O187  O     O_2   0.082810 0.668978 0.148254 -0.097248
O188  O     O_2   0.078530 0.639069 0.237337 -0.267441
O189  O     O_3   0.003869 0.617781 0.177186 -0.450605
O190  O     O_R   0.280290 0.634200 0.280290 -0.565556
O191  O     O_2   0.917308 0.347401 0.839835 -0.096819
O192  O     O_2   0.911924 0.258165 0.866884 -0.282799
O193  O     O_3   0.992341 0.309754 0.890576 -0.458425
O194  O     O_2   0.848357 0.665322 0.082073 -0.161834
O195  O     O_2   0.759910 0.634480 0.085206 -0.237882
O196  O     O_3   0.814577 0.612560 0.006340 -0.463644
O197  O     O_2   0.168357 0.350145 0.916923 -0.175612
O198  O     O_2   0.133340 0.263369 0.916225 -0.252624
O199  O     O_3   0.114642 0.319814 0.994208 -0.453409
O200  O     O_2   0.653494 0.161613 0.088400 -0.176497
O201  O     O_R   0.719710 0.365800 0.719710 -0.568234
O202  O     O_2   0.629677 0.251020 0.098364 -0.285283
O203  O     O_3   0.596185 0.202775 0.019670 -0.445491
O204  O     O_2   0.337738 0.847147 0.915288 -0.176478
O205  O     O_2   0.247318 0.867939 0.906386 -0.259832
O206  O     O_3   0.294430 0.899594 0.986617 -0.438238
O207  O     O_2   0.161237 0.345959 0.082798 -0.105705
O208  O     O_2   0.251935 0.367845 0.088760 -0.301047
O209  O     O_3   0.202911 0.395593 0.008003 -0.470963
O210  O     O_2   0.848268 0.662305 0.919893 -0.121428
O211  O     O_2   0.866202 0.752938 0.908830 -0.324789
O212  O     O_R   0.719710 0.634200 0.719710 -0.565077
O213  O     O_3   0.896904 0.708528 0.991421 -0.484317
O214  O     O_2   0.326499 0.858136 0.081420 -0.115962
O215  O     O_2   0.366094 0.773789 0.085020 -0.255159
O216  O     O_3   0.382514 0.829837 0.005825 -0.459318
O217  O     O_2   0.636730 0.174692 0.922429 -0.093599
O218  O     O_2   0.721141 0.135384 0.916514 -0.260986
O219  O     O_3   0.667089 0.119029 0.997139 -0.460855
O220  O     O_2   0.155087 0.659303 0.919002 -0.147465
O221  O     O_2   0.244881 0.633529 0.916465 -0.241082
O222  O     O_3   0.192303 0.611056 0.997093 -0.453495
O223  O     O_3   0.250000 0.250000 0.750000 -0.617054
O224  O     O_R   0.280290 0.365800 0.280290 -0.564762
O225  O     O_2   0.829652 0.350956 0.081930 -0.178477
O226  O     O_2   0.864181 0.264134 0.078985 -0.234449
O227  O     O_3   0.880733 0.323769 0.002486 -0.429921
O228  O     O_2   0.337492 0.153863 0.915980 -0.166861
O229  O     O_2   0.368368 0.242177 0.909529 -0.272907
O230  O     O_3   0.393069 0.189792 0.989077 -0.445421
O231  O     O_2   0.662416 0.843950 0.084243 -0.179783
O232  O     O_2   0.752287 0.868226 0.095078 -0.243430
O233  O     O_3   0.705547 0.900141 0.014569 -0.463012
O234  O     O_2   0.832926 0.347084 0.918266 -0.091882
O235  O     O_R   0.719710 0.365800 0.280290 -0.571226
O236  O     O_2   0.741459 0.365774 0.909232 -0.280892
O237  O     O_3   0.787489 0.397295 0.990511 -0.462144
O238  O     O_2   0.155617 0.659194 0.081210 -0.107208
O239  O     O_2   0.133120 0.749785 0.087430 -0.296674
O240  O     O_3   0.107171 0.700236 0.005844 -0.463880
O241  O     O_2   0.672066 0.854344 0.918516 -0.103499
O242  O     O_2   0.640691 0.765482 0.920415 -0.259904
O243  O     O_3   0.618933 0.824437 0.995996 -0.448029
O244  O     O_2   0.348561 0.161418 0.082747 -0.096550
O245  O     O_2   0.259708 0.133187 0.087774 -0.280989
O246  O     O_R   0.280290 0.634200 0.719710 -0.570939
O247  O     O_3   0.312011 0.110198 0.007615 -0.456880
O248  O     O_2   0.663019 0.417240 0.653741 -0.152342
O249  O     O_2   0.630576 0.409472 0.741383 -0.269500
O250  O     O_3   0.607344 0.490308 0.690110 -0.454825
O251  O     O_2   0.344587 0.581987 0.337303 -0.158378
O252  O     O_2   0.256139 0.587585 0.368169 -0.236971
O253  O     O_3   0.308000 0.507256 0.391527 -0.447726
O254  O     O_2   0.659670 0.415969 0.344125 -0.168955
O255  O     O_2   0.749651 0.407860 0.368134 -0.256049
O256  O     O_3   0.701174 0.488380 0.397286 -0.449364
O257  O     O_R   0.865800 0.780290 0.280290 -0.565052
O258  O     O_2   0.343944 0.583491 0.660620 -0.181112
O259  O     O_2   0.367805 0.590683 0.750901 -0.237793
O260  O     O_3   0.396877 0.510522 0.701703 -0.432053
O261  O     O_2   0.340048 0.419127 0.344489 -0.118390
O262  O     O_2   0.364254 0.413532 0.254265 -0.309864
O263  O     O_3   0.389870 0.494526 0.304224 -0.483294
O264  O     O_2   0.653802 0.581127 0.660015 -0.114108
O265  O     O_2   0.743813 0.586963 0.635175 -0.322801
O266  O     O_3   0.693186 0.505806 0.610650 -0.475654
O267  O     O_2   0.352671 0.417708 0.667828 -0.095449
O268  O     O_R   0.134200 0.219710 0.719710 -0.565410
O269  O     O_2   0.265813 0.416321 0.633707 -0.263800
O270  O     O_3   0.322614 0.494791 0.614832 -0.459643
O271  O     O_2   0.665684 0.580735 0.352611 -0.092663
O272  O     O_2   0.634414 0.583857 0.264641 -0.266159
O273  O     O_3   0.614171 0.504110 0.318900 -0.442732
O274  O     O_2   0.416846 0.345764 0.337946 -0.154050
O275  O     O_2   0.408265 0.257817 0.369322 -0.271278
O276  O     O_3   0.489097 0.308231 0.393941 -0.449327
O277  O     O_2   0.584588 0.658128 0.659776 -0.163450
O278  O     O_2   0.593577 0.630568 0.748834 -0.243245
O279  O     O_R   0.280290 0.780290 0.134200 -0.575828
O280  O     O_3   0.513733 0.601112 0.699712 -0.436625
O281  O     O_2   0.416000 0.655626 0.340189 -0.165478
O282  O     O_2   0.407976 0.632056 0.250105 -0.263128
O283  O     O_3   0.488455 0.602856 0.298371 -0.448205
O284  O     O_2   0.584548 0.341634 0.656411 -0.182349
O285  O     O_2   0.591853 0.252035 0.631143 -0.243302
O286  O     O_3   0.511451 0.301458 0.603361 -0.432568
O287  O     O_2   0.422361 0.643194 0.670350 -0.114355
O288  O     O_2   0.414047 0.729481 0.635593 -0.295149
O289  O     O_3   0.496029 0.679213 0.615987 -0.477946
O290  O     O_R   0.719710 0.219710 0.865800 -0.577831
O291  O     O_2   0.582446 0.337246 0.348517 -0.110019
O292  O     O_2   0.586749 0.365278 0.259364 -0.318045
O293  O     O_3   0.506917 0.388600 0.312462 -0.468066
O294  O     O_2   0.417924 0.334231 0.648746 -0.092791
O295  O     O_2   0.416524 0.365826 0.736686 -0.266887
O296  O     O_3   0.494974 0.386382 0.680398 -0.455206
O297  O     O_2   0.580734 0.647222 0.333590 -0.088697
O298  O     O_2   0.583827 0.734821 0.365642 -0.272912
O299  O     O_3   0.504158 0.680383 0.385546 -0.434395
O300  O     O_2   0.342090 0.657354 0.583450 -0.155130
O301  O     O_R   0.134200 0.780290 0.719710 -0.567452
O302  O     O_2   0.252745 0.630578 0.591988 -0.272299
O303  O     O_3   0.301654 0.603971 0.510706 -0.452307
O304  O     O_2   0.663841 0.345786 0.417934 -0.156715
O305  O     O_2   0.631804 0.257811 0.413063 -0.237760
O306  O     O_3   0.609605 0.310445 0.493144 -0.451191
O307  O     O_2   0.657602 0.658120 0.584584 -0.168695
O308  O     O_2   0.631827 0.747584 0.592189 -0.272534
O309  O     O_3   0.603606 0.698128 0.512148 -0.449171
O310  O     O_2   0.341845 0.343317 0.415800 -0.181388
O311  O     O_2   0.252222 0.368737 0.408625 -0.240022
O312  O     O_R   0.865800 0.219710 0.280290 -0.572708
O313  O     O_3   0.301592 0.396251 0.489044 -0.434178
O314  O     O_2   0.657157 0.342376 0.580177 -0.125656
O315  O     O_2   0.748023 0.363856 0.586924 -0.305930
O316  O     O_3   0.700094 0.391048 0.505238 -0.481074
O317  O     O_2   0.334723 0.649665 0.417454 -0.108946
O318  O     O_2   0.365431 0.737868 0.414898 -0.316057
O319  O     O_3   0.386262 0.682696 0.493890 -0.459753
O320  O     O_2   0.335098 0.351102 0.581542 -0.093527
O321  O     O_2   0.366125 0.263008 0.583997 -0.267759
O322  O     O_3   0.386986 0.318034 0.504774 -0.456967
O323  O     O_R   0.719710 0.780290 0.865800 -0.568021
O324  O     O_2   0.647996 0.665813 0.419134 -0.087998
O325  O     O_2   0.735839 0.634163 0.415501 -0.273591
O326  O     O_3   0.681638 0.613411 0.495219 -0.441692
O327  O     O_3   0.750000 0.750000 0.250000 -0.618405
O328  O     O_R   0.280290 0.219710 0.134200 -0.580438
O329  O     O_R   0.865800 0.219710 0.719710 -0.567092
O330  O     O_R   0.134200 0.780290 0.280290 -0.566255
O331  O     O_R   0.280290 0.219710 0.865800 -0.568430
O332  O     O_R   0.719710 0.780290 0.134200 -0.569331
O333  O     O_R   0.134200 0.219710 0.280290 -0.578595
O334  O     O_R   0.865800 0.780290 0.719710 -0.570819
O335  O     O_R   0.719710 0.219710 0.134200 -0.568747
O336  O     O_R   0.280290 0.780290 0.865800 -0.562610
O337  O     O_R   0.780290 0.719710 0.134200 -0.566313
O338  O     O_3   0.750000 0.250000 0.750000 -0.618770
O339  O     O_R   0.219710 0.280290 0.865800 -0.565868
O340  O     O_R   0.780290 0.865800 0.719710 -0.574806
O341  O     O_R   0.219710 0.134200 0.280290 -0.578348
O342  O     O_R   0.780290 0.280290 0.865800 -0.566723
O343  O     O_R   0.219710 0.719710 0.134200 -0.573381
O344  O     O_R   0.780290 0.134200 0.280290 -0.571186
O345  O     O_R   0.219710 0.865800 0.719710 -0.580564
O346  O     O_R   0.219710 0.280290 0.134200 -0.567357
O347  O     O_R   0.780290 0.719710 0.865800 -0.563453
O348  O     O_R   0.219710 0.134200 0.719710 -0.567805
O349  O     O_3   0.250000 0.750000 0.250000 -0.618363
O350  O     O_R   0.780290 0.865800 0.280290 -0.567366
O351  O     O_R   0.219710 0.719710 0.865800 -0.578969
O352  O     O_R   0.780290 0.280290 0.134200 -0.569426
O353  O     O_R   0.219710 0.865800 0.280290 -0.568534
O354  O     O_R   0.780290 0.134200 0.719710 -0.565130
O355  O     O_R   0.719710 0.865800 0.219710 -0.564273
O356  O     O_R   0.280290 0.134200 0.780290 -0.566128
O357  O     O_R   0.865800 0.280290 0.219710 -0.575724
O358  O     O_R   0.134200 0.719710 0.780290 -0.578419
O359  O     O_R   0.280290 0.134200 0.219710 -0.566608
O360  O     O_3   0.750000 0.250000 0.250000 -0.618806
O361  O     O_R   0.719710 0.865800 0.780290 -0.575001
O362  O     O_R   0.134200 0.719710 0.219710 -0.572240
O363  O     O_R   0.865800 0.280290 0.780290 -0.580092
O364  O     O_R   0.280290 0.865800 0.780290 -0.567711
O365  O     O_R   0.719710 0.134200 0.219710 -0.565077
O366  O     O_R   0.134200 0.280290 0.780290 -0.568206
O367  O     O_R   0.865800 0.719710 0.219710 -0.567681
O368  O     O_R   0.719710 0.134200 0.780290 -0.578053
O369  O     O_R   0.280290 0.865800 0.219710 -0.571414
O370  O     O_R   0.865800 0.719710 0.780290 -0.568063
O371  O     O_3   0.250000 0.750000 0.750000 -0.618093
O372  O     O_R   0.134200 0.280290 0.219710 -0.564233
O373  O     O_R   0.365800 0.780290 0.780290 -0.565029
O374  O     O_R   0.634200 0.219710 0.219710 -0.568450
O375  O     O_R   0.780290 0.780290 0.634200 -0.571735
O376  O     O_R   0.219710 0.219710 0.365800 -0.571425
O377  O     O_R   0.634200 0.780290 0.219710 -0.571991
O378  O     O_R   0.365800 0.219710 0.780290 -0.566479
O379  O     O_R   0.219710 0.780290 0.365800 -0.569464
O380  O     O_R   0.780290 0.219710 0.634200 -0.567935
O381  O     O_R   0.365800 0.219710 0.219710 -0.571594
O382  O     O_R   0.365800 0.280290 0.280290 -0.568584
O383  O     O_R   0.634200 0.780290 0.780290 -0.578801
O384  O     O_R   0.780290 0.219710 0.365800 -0.577389
O385  O     O_R   0.219710 0.780290 0.634200 -0.571717
O386  O     O_R   0.634200 0.219710 0.780290 -0.571939
O387  O     O_R   0.365800 0.780290 0.219710 -0.571613
O388  O     O_R   0.219710 0.219710 0.634200 -0.566148
O389  O     O_R   0.780290 0.780290 0.365800 -0.571664
O390  O     O_R   0.780290 0.365800 0.219710 -0.570723
O391  O     O_R   0.219710 0.634200 0.780290 -0.571952
O392  O     O_R   0.780290 0.634200 0.780290 -0.569590
S1    S     S_3+6 0.144689 0.438613 0.218929 0.143078
S2    S     S_3+6 0.558708 0.144156 0.223509 0.151998
S3    S     S_3+6 0.446453 0.152119 0.796503 0.146425
S4    S     S_3+6 0.554314 0.801075 0.153409 0.143601
S5    S     S_3+6 0.453422 0.182053 0.166141 0.160292
S6    S     S_3+6 0.547141 0.825943 0.832080 0.157198
S7    S     S_3+6 0.448506 0.847500 0.204260 0.145024
S8    S     S_3+6 0.550682 0.202720 0.845594 0.154022
S9    S     S_3+6 0.784567 0.145741 0.560439 0.139521
S10   S     S_3+6 0.143824 0.776872 0.441243 0.153483
S11   S     S_3+6 0.151966 0.203913 0.553817 0.147066
S12   S     S_3+6 0.777636 0.558760 0.855712 0.155562
S13   S     S_3+6 0.800684 0.846515 0.445987 0.143453
S14   S     S_3+6 0.181982 0.833971 0.546837 0.159330
S15   S     S_3+6 0.834300 0.178412 0.450348 0.163877
S16   S     S_3+6 0.847604 0.794954 0.551455 0.143578
S17   S     S_3+6 0.202273 0.154688 0.449481 0.153862
S18   S     S_3+6 0.658336 0.949761 0.195168 0.152926
S19   S     S_3+6 0.305292 0.050901 0.841912 0.147515
S20   S     S_3+6 0.210654 0.939775 0.354825 0.132366
S21   S     S_3+6 0.851768 0.056458 0.708780 0.153484
S22   S     S_3+6 0.351313 0.946322 0.788142 0.129334
S23   S     S_3+6 0.202886 0.446159 0.847910 0.147710
S24   S     S_3+6 0.714312 0.053835 0.147481 0.122216
S25   S     S_3+6 0.810509 0.948784 0.658568 0.156471
S26   S     S_3+6 0.161094 0.048857 0.316738 0.157319
S27   S     S_3+6 0.655082 0.049966 0.799760 0.163011
S28   S     S_3+6 0.304687 0.951389 0.159828 0.161339
S29   S     S_3+6 0.202919 0.054825 0.651743 0.140960
S30   S     S_3+6 0.852045 0.943187 0.288835 0.148258
S31   S     S_3+6 0.351328 0.053674 0.216654 0.156292
S32   S     S_3+6 0.711123 0.947696 0.849749 0.141463
S33   S     S_3+6 0.807093 0.048789 0.339413 0.162840
S34   S     S_3+6 0.846080 0.553513 0.198286 0.147809
S35   S     S_3+6 0.154485 0.947701 0.699084 0.156377
S36   S     S_3+6 0.950059 0.805624 0.340780 0.155490
S37   S     S_3+6 0.051557 0.157130 0.696074 0.147047
S38   S     S_3+6 0.939916 0.645967 0.790531 0.131888
S39   S     S_3+6 0.056452 0.289912 0.148031 0.151031
S40   S     S_3+6 0.946916 0.209853 0.649733 0.131674
S41   S     S_3+6 0.053822 0.853942 0.284588 0.123995
S42   S     S_3+6 0.948644 0.340826 0.188477 0.155021
S43   S     S_3+6 0.049239 0.683903 0.839375 0.156917
S44   S     S_3+6 0.050349 0.202862 0.346307 0.164163
S45   S     S_3+6 0.833926 0.453112 0.818516 0.158461
S46   S     S_3+6 0.950537 0.841919 0.698325 0.159529
S47   S     S_3+6 0.054315 0.347160 0.798987 0.143968
S48   S     S_3+6 0.942920 0.710565 0.147595 0.148830
S49   S     S_3+6 0.052962 0.786912 0.650250 0.158515
S50   S     S_3+6 0.947914 0.151354 0.292423 0.144105
S51   S     S_3+6 0.048597 0.660576 0.193486 0.162435
S52   S     S_3+6 0.947207 0.299083 0.846609 0.153888
S53   S     S_3+6 0.801088 0.656230 0.051534 0.163690
S54   S     S_3+6 0.157253 0.303910 0.948856 0.147609
S55   S     S_3+6 0.645143 0.210996 0.060359 0.130941
S56   S     S_3+6 0.174800 0.548797 0.168316 0.160511
S57   S     S_3+6 0.288176 0.852629 0.943503 0.150208
S58   S     S_3+6 0.210363 0.350541 0.053267 0.132706
S59   S     S_3+6 0.851428 0.712192 0.946607 0.121708
S60   S     S_3+6 0.340184 0.811954 0.050882 0.156918
S61   S     S_3+6 0.683751 0.161257 0.951487 0.157373
S62   S     S_3+6 0.202923 0.653834 0.949918 0.163177
S63   S     S_3+6 0.839773 0.305864 0.048712 0.157706
S64   S     S_3+6 0.347797 0.201905 0.945276 0.143573
S65   S     S_3+6 0.712410 0.852497 0.057052 0.151861
S66   S     S_3+6 0.782728 0.351513 0.945914 0.157070
S67   S     S_3+6 0.791506 0.449462 0.151743 0.135878
S68   S     S_3+6 0.150950 0.708262 0.052064 0.142947
S69   S     S_3+6 0.662138 0.808648 0.951406 0.165035
S70   S     S_3+6 0.300519 0.154021 0.052655 0.154824
S71   S     S_3+6 0.651961 0.445797 0.702120 0.156155
S72   S     S_3+6 0.296320 0.552454 0.347167 0.170530
S73   S     S_3+6 0.709028 0.444570 0.351097 0.148985
S74   S     S_3+6 0.350977 0.554583 0.709801 0.158997
S75   S     S_3+6 0.345593 0.448650 0.295674 0.134711
S76   S     S_3+6 0.702368 0.551716 0.654307 0.131482
S77   S     S_3+6 0.306271 0.449329 0.657477 0.156819
S78   S     S_3+6 0.154097 0.550685 0.797323 0.153688
S79   S     S_3+6 0.657069 0.550083 0.305224 0.159144
S80   S     S_3+6 0.445066 0.297094 0.348733 0.153347
S81   S     S_3+6 0.556389 0.648432 0.709022 0.170606
S82   S     S_3+6 0.444580 0.649037 0.290721 0.146900
S83   S     S_3+6 0.555557 0.292621 0.649082 0.154893
S84   S     S_3+6 0.450272 0.691871 0.659260 0.138248
S85   S     S_3+6 0.552109 0.344760 0.300737 0.134693
S86   S     S_3+6 0.449516 0.343321 0.695365 0.159331
S87   S     S_3+6 0.550071 0.694439 0.342714 0.159737
S88   S     S_3+6 0.292966 0.649274 0.555173 0.148927
S89   S     S_3+6 0.436372 0.775437 0.856878 0.139826
S90   S     S_3+6 0.653561 0.297848 0.447806 0.169746
S91   S     S_3+6 0.649791 0.707158 0.555699 0.139736
S92   S     S_3+6 0.292801 0.350700 0.444807 0.156599
S93   S     S_3+6 0.706578 0.346493 0.551371 0.134318
S94   S     S_3+6 0.343308 0.696624 0.448633 0.134017
S95   S     S_3+6 0.343856 0.303989 0.550496 0.158006
S96   S     S_3+6 0.695326 0.656706 0.449599 0.158940
Zn1   Zn    Zn3+2 0.206600 0.293400 0.206600 1.153642
Zn2   Zn    Zn3+2 0.706600 0.206600 0.206600 1.154949
Zn3   Zn    Zn3+2 0.293400 0.206600 0.793400 1.143161
Zn4   Zn    Zn3+2 0.706600 0.793400 0.206600 1.147137
Zn5   Zn    Zn3+2 0.293400 0.206600 0.206600 1.145135
Zn6   Zn    Zn3+2 0.706600 0.793400 0.793400 1.143400
Zn7   Zn    Zn3+2 0.293400 0.793400 0.206600 1.144527
Zn8   Zn    Zn3+2 0.706600 0.206600 0.793400 1.147354
Zn9   Zn    Zn3+2 0.793400 0.206600 0.706600 1.152685
Zn10  Zn    Zn3+2 0.206600 0.793400 0.293400 1.154439
Zn11  Zn    Zn3+2 0.206600 0.206600 0.706600 1.143135
Zn12  Zn    Zn3+2 0.793400 0.706600 0.793400 1.156793
Zn13  Zn    Zn3+2 0.793400 0.793400 0.293400 1.145072
Zn14  Zn    Zn3+2 0.206600 0.793400 0.706600 1.143349
Zn15  Zn    Zn3+2 0.793400 0.206600 0.293400 1.144840
Zn16  Zn    Zn3+2 0.793400 0.793400 0.706600 1.145628
Zn17  Zn    Zn3+2 0.206600 0.206600 0.293400 1.147524
Zn18  Zn    Zn3+2 0.706600 0.293400 0.706600 1.151017
Zn19  Zn    Zn3+2 0.293400 0.706600 0.293400 1.148067
Zn20  Zn    Zn3+2 0.706600 0.293400 0.293400 1.149470
Zn21  Zn    Zn3+2 0.293400 0.706600 0.706600 1.150308
Zn22  Zn    Zn3+2 0.293400 0.293400 0.293400 1.151366
Zn23  Zn    Zn3+2 0.206600 0.293400 0.793400 1.142840
Zn24  Zn    Zn3+2 0.706600 0.706600 0.706600 1.149688
Zn25  Zn    Zn3+2 0.293400 0.293400 0.706600 1.144649
Zn26  Zn    Zn3+2 0.706600 0.706600 0.293400 1.140425
Zn27  Zn    Zn3+2 0.793400 0.706600 0.206600 1.148710
Zn28  Zn    Zn3+2 0.793400 0.293400 0.793400 1.145510
Zn29  Zn    Zn3+2 0.206600 0.706600 0.206600 1.144086
Zn30  Zn    Zn3+2 0.793400 0.293400 0.206600 1.146212
Zn31  Zn    Zn3+2 0.206600 0.706600 0.793400 1.149330
Zn32  Zn    Zn3+2 0.293400 0.793400 0.793400 1.154365

loop_
_geom_bond_atom_site_label_1
_geom_bond_atom_site_label_2
_ccdc_geom_bond_type
H68   O240  S    
C91   C188  A    
C60   C79   S    
C2    O374  A    
C151  S5    S    
C129  O340  A    
O162  S42   D    
C18   C21   A    
O200  S55   D    
C94   C185  A    
C2    C65   S    
O271  S79   D    
C122  O331  A    
C181  C187  A    
O338  Zn8   S    
O103  S22   S    
O352  Zn30  S    
C124  O333  A    
H41   O160  S    
O118  S28   D    
O42   S3    D    
O69   S11   D    
C126  O335  A    
O228  S64   D    
O206  S57   S    
O215  S60   D    
O167  S44   D    
O176  S47   S    
O370  Zn12  S    
O379  Zn10  S    
C27   C52   A    
O29   S67   D    
C139  C142  A    
H96   O326  S    
C135  O353  A    
H34   O20   S    
H7    O56   S    
C16   S61   S    
C37   C42   A    
O314  S93   D    
O328  Zn5   S    
C13   O379  A    
C139  S12   S    
H88   O303  S    
C93   C181  A    
O250  S71   S    
C176  C179  A    
C39   S84   S    
O349  Zn19  S    
O339  Zn23  S    
O182  S49   D    
C173  S27   S    
H76   O266  S    
C44   C70   A    
C65   C147  A    
C61   C105  S    
O374  Zn2   S    
C137  S1    S    
C131  O365  A    
C111  O367  A    
H1    O10   S    
O93   S19   S    
O232  S65   D    
O102  S22   D    
O291  S85   D    
O287  S84   D    
C66   C182  S    
C33   C59   A    
O117  S27   S    
O139  S35   D    
C4    C191  A    
O342  Zn28  S    
O313  S92   S    
O362  Zn29  S    
C46   O378  A    
O142  S36   D    
O7    Zn27  S    
O63   S9    S    
O20   S34   S    
O349  Zn10  S    
O282  S82   D    
O91   S19   D    
C150  C153  A    
C52   C101  S    
H49   O183  S    
O261  S75   D    
O336  Zn32  S    
C72   C163  A    
H82   O283  S    
C128  O351  A    
O1    Zn22  S    
C189  S43   S    
O51   S6    D    
O269  S77   D    
C143  S56   S    
O13   Zn25  S    
C55   C144  A    
O344  Zn15  S    
O355  Zn4   S    
C114  O290  A    
O64   S10   D    
H2    O40   S    
C86   C174  A    
O372  Zn1   S    
O25   S56   D    
C94   C190  A    
O41   S3    D    
O166  S43   S    
O24   Zn26  S    
H23   O17   S    
O225  S63   D    
O327  Zn27  S    
C7    C88   A    
H52   O193  S    
O285  S83   D    
O280  S81   S    
C82   C178  A    
O229  S64   D    
C74   C156  A    
C18   C104  A    
O354  Zn9   S    
C174  C177  A    
C80   C132  S    
C12   C97   A    
O264  S76   D    
O104  S24   D    
C54   C145  A    
H25   O109  S    
C7    S52   S    
O286  S83   S    
O318  S94   D    
O179  Zn26  S    
H50   O186  S    
C28   C33   A    
C40   C65   A    
C183  S37   S    
C7    C192  A    
O304  S90   D    
C131  O344  A    
C102  C123  S    
C50   C77   A    
O81   S16   D    
O371  Zn14  S    
C41   C69   A    
C4    C89   A    
C119  O346  A    
H91   O309  S    
C94   C124  S    
C43   C71   A    
H73   O256  S    
O220  S62   D    
C125  O334  A    
C17   C22   A    
O389  Zn13  S    
O327  Zn26  S    
O2    Zn24  S    
C140  C145  A    
C182  O79   A    
O337  Zn27  S    
C51   S96   S    
O323  Zn6   S    
C32   S77   S    
O360  Zn2   S    
O77   S15   D    
C1    O381  A    
C80   C180  A    
C10   C16   A    
O157  Zn22  S    
C108  O224  A    
C16   C98   A    
O371  Zn31  S    
O35   Zn18  S    
O244  S70   D    
C57   O375  A    
C108  O3    A    
O278  S81   D    
O6    Zn23  S    
O201  Zn18  S    
C78   C169  A    
C136  O354  A    
O312  Zn15  S    
O1    Zn17  S    
C66   C146  A    
C98   C114  S    
H9    O63   S    
C6    S51   S    
C75   C155  A    
H84   O289  S    
C14   S59   S    
C17   S62   S    
C35   O124  A    
C4    S49   S    
C177  S31   S    
C140  S23   S    
C146  S89   S    
C169  S24   S    
O281  S82   D    
O9    S1    D    
O130  S31   S    
C80   C168  A    
C101  O4    A    
C8    S53   S    
C44   C48   A    
O144  S37   D    
H28   O120  S    
C158  C162  A    
O231  S65   D    
O67   S11   D    
O230  S64   S    
O256  S73   S    
O258  S74   D    
O105  S24   D    
C48   S93   S    
O388  Zn11  S    
O33   S78   S    
C3    C6    A    
C117  O357  A    
C1    C62   S    
O238  S68   D    
O95   S20   D    
O39   S2    D    
O224  Zn22  S    
O112  Zn16  S    
O236  S66   D    
O262  S75   D    
C188  S42   S    
C166  S20   S    
C119  O328  A    
C182  O373  A    
O368  Zn8   S    
O78   S15   D    
O272  S79   D    
C164  S18   S    
C18   S63   S    
O52   S6    D    
C107  O212  A    
O208  S58   D    
O240  S68   S    
C37   S82   S    
H56   O27   S    
O100  S22   D    
O359  Zn5   S    
C184  S38   S    
C54   C110  S    
C53   C142  A    
C157  S11   S    
H31   O130  S    
C57   C73   S    
O332  Zn4   S    
O205  S57   D    
O358  Zn31  S    
C175  S29   S    
O57   Zn20  S    
O87   S18   D    
O1    Zn5   S    
O71   S13   D    
H6    O53   S    
O322  S95   S    
O86   S17   S    
O319  S94   S    
O106  S24   S    
H80   O276  S    
C160  O384  A    
O239  S68   D    
H20   O96   S    
O188  S51   D    
O211  S59   D    
H35   O140  S    
C31   C56   A    
O84   S17   D    
O202  S55   D    
C147  S2    S    
O154  S40   D    
O366  Zn23  S    
O383  Zn6   S    
O18   S34   D    
O245  S70   D    
O38   S2    D    
O193  S52   S    
H10   O66   S    
C166  C172  A    
C55   C109  S    
H24   O106  S    
C115  O301  A    
C11   C15   A    
H15   O80   S    
O45   S4    D    
O178  S48   D    
C9    S54   S    
C158  S13   S    
C47   C50   A    
O15   S23   D    
H8    O60   S    
C43   C49   A    
O160  S41   S    
O137  S33   S    
C85   C167  A    
O324  S96   D    
C31   S76   S    
O377  Zn4   S    
O32   S78   D    
C51   C76   A    
O198  S54   D    
C38   C41   A    
O204  S57   D    
C183  C186  A    
O227  S63   S    
O218  S61   D    
O321  S95   D    
C87   C187  A    
C64   C153  A    
H51   O189  S    
H93   O316  S    
O107  S25   D    
C149  O46   A    
C97   C119  S    
O22   S45   D    
C147  C151  A    
O375  Zn16  S    
O147  S37   S    
H60   O216  S    
C68   O376  A    
H64   O230  S    
O92   S19   D    
O171  S46   D    
C5    S50   S    
C20   C23   A    
C35   C67   S    
C47   S92   S    
C11   S57   S    
O381  Zn5   S    
H4    O47   S    
C36   S81   S    
H16   O83   S    
C3    C93   A    
O309  S91   S    
C82   C129  S    
H71   O250  S    
O223  Zn11  S    
C5    C91   A    
O152  S39   D    
O72   S13   D    
O226  S63   D    
C60   C140  A    
O17   S23   S    
H72   O253  S    
O367  Zn27  S    
O158  S41   D    
O184  S50   D    
O48   S5    D    
C9    C100  A    
O183  S49   S    
O331  Zn3   S    
H77   O270  S    
C71   C171  S    
O135  Zn25  S    
C106  O5    A    
O172  S46   D    
O376  Zn17  S    
O125  S30   D    
C25   C97   A    
O44   S4    D    
H66   O237  S    
C107  O392  A    
O74   S14   D    
O16   S23   D    
C89   C189  A    
C144  S67   S    
O164  S43   D    
H17   O86   S    
C36   C39   A    
O298  S87   D    
O270  S77   S    
O296  S86   S    
C111  O257  A    
O155  S40   D    
O143  S36   S    
O349  Zn29  S    
C49   S94   S    
O115  S27   D    
H30   O127  S    
C115  O358  A    
C90   O7    A    
O320  S95   D    
C153  S7    S    
O311  S92   D    
O19   S34   D    
C64   C149  S    
O369  Zn7   S    
O365  Zn2   S    
C81   C177  A    
C136  O368  A    
O356  Zn3   S    
O70   S11   S    
C105  O383  A    
O28   S67   D    
C25   S70   S    
C171  O385  A    
O149  S38   D    
O326  S96   S    
C118  O347  A    
C159  S14   S    
O300  S88   D    
C9    C12   A    
C104  C126  S    
H3    O43   S    
O120  S28   S    
C85   C136  S    
C44   S90   S    
C86   C135  S    
C13   O101  A    
O121  S29   D    
C59   C141  A    
O325  S96   D    
O181  S49   D    
O66   S10   S    
H44   O170  S    
O210  S59   D    
O111  S26   D    
O134  S33   D    
C24   O380  A    
H85   O293  S    
C134  O355  A    
O150  S38   S    
O40   S2    S    
C43   S88   S    
O112  Zn6   S    
O343  Zn29  S    
O116  S27   D    
C86   C166  A    
C180  S35   S    
C89   C115  S    
O53   S6    S    
O353  Zn10  S    
O109  S25   S    
C155  C161  A    
H75   O263  S    
C127  O24   A    
C83   C165  A    
H81   O280  S    
C84   C134  S    
O305  S90   D    
H94   O319  S    
C145  S78   S    
O159  S41   D    
O235  Zn20  S    
O4    Zn29  S    
O131  S32   D    
C29   C32   A    
O203  S55   S    
O385  Zn14  S    
O243  S69   S    
C191  S46   S    
O43   S3    S    
H40   O156  S    
O348  Zn11  S    
O82   S16   D    
H95   O322  S    
C128  O336  A    
C42   C67   A    
C121  O330  A    
H38   O150  S    
C34   C62   A    
O382  Zn22  S    
C112  O366  A    
O31   S78   D    
C185  S39   S    
O21   S45   D    
O30   S67   S    
O214  S60   D    
O192  S52   D    
O338  Zn18  S    
C187  S41   S    
O254  S73   D    
O88   S18   D    
O23   S45   S    
O284  S83   D    
O303  S88   S    
C91   C117  S    
O307  S91   D    
C149  O387  A    
C88   C120  S    
O55   S7    D    
O253  S72   S    
O316  S93   S    
O219  S61   S    
O242  S69   D    
O76   S14   S    
O112  Zn12  S    
C152  S6    S    
H36   O143  S    
O94   S20   D    
C138  O35   A    
C67   C150  A    
O189  S51   S    
O161  S42   D    
C148  C154  A    
C68   O157  A    
O274  S80   D    
H70   O247  S    
O276  S80   S    
H55   O203  S    
O363  Zn28  S    
O59   S8    D    
C45   S91   S    
O334  Zn16  S    
O127  S30   S    
O79   Zn21  S    
H69   O243  S    
C167  S21   S    
O350  Zn13  S    
O46   Zn19  S    
O234  S66   D    
C52   C143  A    
C62   C151  A    
O265  S76   D    
O124  Zn26  S    
O180  S48   S    
O360  Zn15  S    
C141  S34   S    
O335  Zn2   S    
C87   C121  S    
C56   C139  A    
O347  Zn12  S    
C92   C112  S    
O73   S13   S    
O233  S65   S    
C41   S86   S    
O96   S20   S    
C127  O389  A    
C78   C179  A    
O97   S21   D    
C110  O246  A    
C121  O362  A    
O295  S86   D    
O364  Zn32  S    
C122  O339  A    
O246  Zn21  S    
C118  O323  A    
O333  Zn17  S    
C110  O391  A    
O153  S39   S    
O297  S87   D    
O168  Zn25  S    
O386  Zn8   S    
O12   S12   D    
O283  S82   S    
O5    Zn28  S    
H26   O114  S    
C120  O363  A    
C165  S19   S    
O327  Zn4   S    
O345  Zn14  S    
C142  S45   S    
O209  S58   S    
O273  S79   S    
O248  S71   D    
O360  Zn30  S    
O196  S53   S    
C93   C111  S    
C161  S15   S    
C30   S75   S    
O187  S51   D    
C57   O146  A    
C39   C66   A    
C141  C144  A    
C181  S36   S    
O279  Zn7   S    
C32   C60   A    
C36   C61   A    
C70   C161  A    
O58   S8    D    
C37   C64   A    
C171  O68   A    
O351  Zn31  S    
C38   C63   A    
C96   C118  S    
O390  Zn30  S    
H32   O133  S    
C126  O352  A    
C22   C99   A    
O89   S18   S    
O255  S73   D    
C35   O377  A    
C63   C154  A    
C176  S30   S    
C99   C113  S    
C19   C100  A    
O195  S53   D    
C24   C75   S    
O212  Zn24  S    
C165  C168  A    
H5    O50   S    
C186  S40   S    
O114  S26   S    
O169  S44   D    
O338  Zn28  S    
C160  O57   A    
O123  S29   S    
O173  S46   S    
C163  S17   S    
O302  S88   D    
H12   O14   S    
O275  S80   D    
O260  S74   S    
H58   O209  S    
H90   O306  S    
O252  S72   D    
C21   C98   A    
C133  O348  A    
C81   C130  S    
H89   O37   S    
C42   S87   S    
O113  Zn18  S    
O8    S1    D    
O222  S62   S    
H78   O33   S    
O80   S15   S    
C58   C108  S    
O99   S21   S    
O341  Zn17  S    
O360  Zn20  S    
H63   O227  S    
C47   C72   A    
C46   O135  A    
O75   S14   D    
H57   O206  S    
O194  S53   D    
O14   S12   S    
O268  Zn11  S    
H65   O233  S    
C13   C74   S    
O163  S42   S    
C20   S65   S    
C69   C148  A    
O26   S56   D    
C49   C74   A    
H37   O147  S    
O146  Zn24  S    
C84   C176  A    
O68   Zn21  S    
O249  S71   D    
C92   C192  A    
O338  Zn9   S    
O62   S9    D    
O47   S4    S    
C101  O190  A    
O140  S35   S    
C82   C170  A    
C174  S28   S    
H13   O73   S    
O165  S43   D    
O10   S1    S    
C83   C175  A    
O306  S90   S    
O216  S60   S    
C172  S26   S    
C130  O359  A    
O330  Zn10  S    
O50   S5    S    
H61   O219  S    
O27   S56   S    
O294  S86   D    
O175  S47   D    
O110  S26   D    
O293  S85   S    
O257  Zn13  S    
O3    Zn1   S    
C124  O372  A    
C76   C158  A    
O138  S35   D    
C73   C162  A    
O373  Zn32  S    
C34   C40   A    
C175  C180  A    
C173  C178  A    
C45   C73   A    
C1    O382  A    
C106  O201  A    
C130  O341  A    
C5    C190  A    
O221  S62   D    
O299  S87   S    
C125  O370  A    
C79   O6    A    
C95   C184  A    
O217  S61   D    
O371  Zn32  S    
C45   C51   A    
C123  O332  A    
H48   O180  S    
H29   O123  S    
C148  S3    S    
C168  S22   S    
C23   C96   A    
C134  O350  A    
O37   S89   S    
C81   C172  A    
H86   O296  S    
H27   O117  S    
C190  S44   S    
C105  O2    A    
C46   C69   S    
C79   O168  A    
C114  O342  A    
O288  S84   D    
C156  S10   S    
O292  S85   D    
O156  S40   S    
C38   S83   S    
H87   O299  S    
O190  Zn19  S    
C135  O369  A    
C85   C173  A    
C29   S74   S    
C76   C127  S    
C77   C116  S    
H39   O153  S    
C157  C163  A    
C192  S47   S    
C70   C160  S    
C84   C164  A    
C116  O388  A    
C68   C72   S    
H54   O199  S    
O11   S12   D    
H45   O23   S    
C88   C186  A    
O191  S52   D    
C137  C143  A    
C132  O345  A    
C26   C31   A    
O199  S54   S    
C113  O343  A    
C27   C30   A    
C48   C75   A    
C164  C169  A    
O384  Zn15  S    
O223  Zn3   S    
C26   S71   S    
C20   C102  A    
O126  S30   D    
C28   C55   A    
O145  S37   D    
C27   S72   S    
C167  C170  A    
O263  S75   S    
C50   S95   S    
H79   O273  S    
O391  Zn31  S    
C150  S4    S    
O36   S89   D    
C179  S33   S    
O340  Zn16  S    
O290  Zn8   S    
H14   O76   S    
O378  Zn3   S    
O308  S91   D    
O170  S44   S    
O247  S70   S    
O392  Zn12  S    
O213  S59   S    
C185  C188  A    
H74   O260  S    
C3    S48   S    
O207  S58   D    
O90   Zn20  S    
C133  O356  A    
O60   S8    S    
C6    C87   A    
O132  S32   D    
H43   O166  S    
O387  Zn7   S    
C59   C90   S    
O301  Zn14  S    
H11   O70   S    
C78   C131  S    
O197  S54   D    
C56   C107  S    
C162  S16   S    
H42   O163  S    
C116  O13   A    
O112  Zn24  S    
O174  S47   D    
O151  S39   D    
H62   O222  S    
H18   O89   S    
C21   S66   S    
C109  O235  A    
O34   S89   D    
O83   S16   S    
O380  Zn9   S    
H33   O137  S    
O251  S72   D    
C138  O386  A    
O277  S81   D    
O357  Zn30  S    
C103  C128  S    
O56   S7    S    
C53   C106  S    
O310  S92   D    
C113  O279  A    
C10   S55   S    
O141  S36   D    
C146  C152  A    
C40   S85   S    
C58   C137  A    
C95   C125  S    
H19   O93   S    
H46   O173  S    
C90   O179  A    
C63   C138  S    
C22   S68   S    
O289  S84   S    
C28   S73   S    
O327  Zn13  S    
H83   O286  S    
C26   C53   A    
O223  Zn23  S    
H22   O103  S    
O136  S33   D    
O317  S94   D    
C19   S64   S    
H67   O30   S    
C178  S32   S    
O65   S10   D    
C8    C14   A    
C95   C191  A    
C112  O268  A    
C156  C159  A    
C15   C99   A    
H21   O99   S    
C92   C183  A    
O315  S93   D    
O54   S7    D    
C170  S25   S    
C11   C103  A    
H53   O196  S    
C29   C54   A    
H59   O213  S    
C120  O329  A    
C132  O364  A    
C71   C159  A    
O108  S25   D    
O98   S21   D    
C154  S8    S    
C15   S60   S    
C24   O113  A    
O329  Zn9   S    
C10   C104  A    
C17   C103  A    
C34   S80   S    
O267  S77   D    
O148  S38   D    
C30   C58   A    
O266  S76   S    
C14   C96   A    
C33   S79   S    
O128  S31   D    
C100  C122  S    
C2    O90   A    
C19   C25   A    
C61   C152  A    
C83   C133  S    
O177  S48   D    
O186  S50   S    
C109  O390  A    
O129  S31   D    
H92   O313  S    
C12   S58   S    
O371  Zn21  S    
C117  O312  A    
C155  S9    S    
C123  O337  A    
C129  O361  A    
O349  Zn7   S    
O259  S74   D    
O223  Zn25  S    
C23   S69   S    
O133  S32   S    
O1    Zn1   S    
O122  S29   D    
O61   S9    D    
C184  C189  A    
C77   C157  A    
O361  Zn6   S    
O85   S17   D    
O185  S50   D    
O101  Zn19  S    
C8    C102  A    
O119  S28   D    
H47   O176  S    
O346  Zn1   S    
O49   S5    D    
O237  S66   S    
O241  S69   D    
