data_str_m1_o1_o17_f0_pcu.sym.10
_audit_creation_date              2012-12-10T17:59:29-0500
_audit_creation_method            fapswitch 2.2
_symmetry_space_group_name_H-M    P1
_symmetry_Int_Tables_number       1
_space_group_crystal_system       triclinic
_cell_length_a                    18.425382
_cell_length_b                    18.425383
_cell_length_c                    34.264631
_cell_angle_alpha                 90.000026
_cell_angle_beta                  89.99993
_cell_angle_gamma                 89.999963
_cell_volume                      11632.6613165

loop_
_atom_site_label
_atom_site_type_symbol
_atom_type_description
_atom_site_fract_x
_atom_site_fract_y
_atom_site_fract_z
_atom_type_partial_charge
C1    C     C_R   0.983522 0.564218 0.418216 0.213279
C2    C     C_R   0.485018 0.935464 0.081847 0.207666
C3    C     C_R   0.433444 0.003454 0.541131 -0.045198
C4    C     C_R   0.994165 0.566407 0.459013 -0.042735
C5    C     C_R   0.996540 0.433446 0.541131 -0.045197
C6    C     C_R   0.433593 0.994149 0.459014 -0.042705
C7    C     C_R   0.566554 0.996547 0.541131 -0.045200
C8    C     C_R   0.505849 0.933594 0.959014 -0.042701
C9    C     C_R   0.503459 0.066555 0.041132 -0.045202
C10   C     C_R   0.066406 0.505849 0.959014 -0.042704
C11   C     C_R   0.933444 0.503455 0.041132 -0.045199
C12   C     C_R   0.494155 0.066407 0.959014 -0.042712
C13   C     C_R   0.935785 0.483511 0.918216 0.213336
C14   C     C_R   0.496544 0.933445 0.041132 -0.045198
C15   C     C_R   0.933593 0.494150 0.959014 -0.042705
C16   C     C_R   0.066554 0.496544 0.041132 -0.045199
C17   C     C_R   0.195943 0.695991 0.249995 -0.043896
C18   C     C_R   0.803381 0.303322 0.749951 -0.044572
C19   C     C_R   0.304009 0.195943 0.249994 -0.043897
C20   C     C_R   0.696678 0.803381 0.749951 -0.044573
C21   C     C_R   0.804057 0.304008 0.249995 -0.043898
C22   C     C_R   0.196619 0.696678 0.749951 -0.044572
C23   C     C_R   0.695991 0.804057 0.249995 -0.043896
C24   C     C_R   0.064536 0.485019 0.081847 0.207667
C25   C     C_R   0.303322 0.196619 0.749951 -0.044573
C26   C     C_R   0.195992 0.304057 0.749995 -0.043896
C27   C     C_R   0.803322 0.696619 0.249951 -0.044573
C28   C     C_R   0.304057 0.804009 0.749995 -0.043898
C29   C     C_R   0.696619 0.196678 0.249951 -0.044573
C30   C     C_R   0.804009 0.695943 0.749994 -0.043897
C31   C     C_R   0.196678 0.303381 0.249951 -0.044573
C32   C     C_R   0.695943 0.195991 0.749995 -0.043898
C33   C     C_R   0.303381 0.803322 0.249951 -0.044572
C34   C     C_R   0.000005 0.500000 0.479551 -0.129650
C35   C     C_R   0.516488 0.935785 0.918215 0.213344
C36   C     C_R   0.000004 0.500000 0.520573 -0.127870
C37   C     C_R   0.499999 0.000000 0.479551 -0.129659
C38   C     C_R   0.499999 0.000000 0.520573 -0.127870
C39   C     C_R   0.500002 0.000000 0.979551 -0.129657
C40   C     C_R   0.500001 0.000000 0.020573 -0.127870
C41   C     C_R   0.999999 0.499999 0.979551 -0.129659
C42   C     C_R   0.999999 0.499999 0.020573 -0.127870
C43   C     C_3   0.926282 0.284715 0.452651 0.046682
C44   C     C_3   0.922350 0.211343 0.432005 -0.245027
C45   C     C_3   0.844216 0.191182 0.421857 -0.494743
C46   C     C_R   0.514983 0.064536 0.081847 0.207664
C47   C     C_3   0.922467 0.709192 0.555111 0.053696
C48   C     C_3   0.873395 0.747923 0.525619 -0.267082
C49   C     C_3   0.799672 0.765986 0.543492 -0.498843
C50   C     C_3   0.715287 0.926306 0.452647 0.046687
C51   C     C_3   0.788671 0.922377 0.432013 -0.245027
C52   C     C_3   0.808834 0.844246 0.421860 -0.494750
C53   C     C_3   0.290813 0.922437 0.555111 0.053695
C54   C     C_3   0.252087 0.873360 0.525619 -0.267072
C55   C     C_3   0.234021 0.799640 0.543495 -0.498831
C56   C     C_3   0.073736 0.715255 0.452627 0.046722
C57   C     C_R   0.064215 0.516489 0.918216 0.213337
C58   C     C_3   0.077689 0.788713 0.432071 -0.245032
C59   C     C_3   0.155813 0.808826 0.421875 -0.494774
C60   C     C_3   0.077547 0.290812 0.555111 0.053701
C61   C     C_3   0.126622 0.252086 0.525618 -0.267084
C62   C     C_3   0.200346 0.234026 0.543491 -0.498844
C63   C     C_3   0.284713 0.073699 0.452647 0.046687
C64   C     C_3   0.211330 0.077629 0.432012 -0.245033
C65   C     C_3   0.191169 0.155760 0.421859 -0.494747
C66   C     C_3   0.709177 0.077574 0.555111 0.053703
C67   C     C_3   0.747893 0.126655 0.525618 -0.267088
C68   C     C_R   0.935463 0.514980 0.081847 0.207664
C69   C     C_3   0.765943 0.200381 0.543490 -0.498843
C70   C     C_3   0.426293 0.784715 0.952650 0.046682
C71   C     C_3   0.422361 0.711342 0.932004 -0.245028
C72   C     C_3   0.344228 0.691181 0.921855 -0.494744
C73   C     C_3   0.422443 0.209184 0.055111 0.053700
C74   C     C_3   0.373367 0.247909 0.025618 -0.267084
C75   C     C_3   0.299641 0.265964 0.043490 -0.498844
C76   C     C_3   0.215285 0.426297 0.952648 0.046687
C77   C     C_3   0.288668 0.422366 0.932012 -0.245028
C78   C     C_3   0.308829 0.344235 0.921859 -0.494748
C79   C     C_R   0.000001 0.500000 0.398143 0.024511
C80   C     C_3   0.790814 0.422437 0.055111 0.053700
C81   C     C_3   0.752097 0.373359 0.025616 -0.267083
C82   C     C_3   0.734036 0.299635 0.043489 -0.498841
C83   C     C_3   0.573714 0.215277 0.952644 0.046688
C84   C     C_3   0.577653 0.288679 0.932030 -0.245033
C85   C     C_3   0.655783 0.308827 0.921867 -0.494753
C86   C     C_3   0.577562 0.790816 0.055110 0.053702
C87   C     C_3   0.626639 0.752094 0.025617 -0.267085
C88   C     C_3   0.700364 0.734039 0.043489 -0.498844
C89   C     C_3   0.784715 0.573704 0.952647 0.046686
C90   C     C_R   0.000001 0.500000 0.601924 0.027479
C91   C     C_3   0.711333 0.577635 0.932011 -0.245030
C92   C     C_3   0.691173 0.655767 0.921858 -0.494747
C93   C     C_3   0.209181 0.577565 0.055110 0.053703
C94   C     C_3   0.247909 0.626639 0.025618 -0.267083
C95   C     C_3   0.265961 0.700366 0.043489 -0.498844
C96   C     C_3   0.195542 0.915115 0.211517 -0.124361
C97   C     C_3   0.776548 0.101873 0.819780 -0.065416
C98   C     C_3   0.084885 0.195542 0.211517 -0.124362
C99   C     C_3   0.898127 0.776549 0.819779 -0.065417
C100  C     C_3   0.804458 0.084885 0.211518 -0.124361
C101  C     C_R   0.499999 0.000000 0.398143 0.024509
C102  C     C_3   0.223450 0.898128 0.819779 -0.065417
C103  C     C_3   0.915114 0.804458 0.211516 -0.124361
C104  C     C_3   0.101874 0.223453 0.819781 -0.065417
C105  C     C_3   0.195100 0.084775 0.787675 -0.124213
C106  C     C_3   0.776242 0.897984 0.179987 -0.064880
C107  C     C_3   0.084774 0.804900 0.787673 -0.124213
C108  C     C_3   0.897986 0.223756 0.179988 -0.064881
C109  C     C_3   0.804900 0.915226 0.787674 -0.124212
C110  C     C_3   0.223757 0.102015 0.179988 -0.064880
C111  C     C_3   0.915226 0.195101 0.787674 -0.124212
C112  C     C_R   0.985013 0.435465 0.581847 0.207665
C113  C     C_R   0.499999 0.000000 0.601924 0.027478
C114  C     C_3   0.102014 0.776243 0.179989 -0.064881
C115  C     C_3   0.695542 0.415114 0.711517 -0.124362
C116  C     C_3   0.276548 0.601873 0.319780 -0.065420
C117  C     C_3   0.584886 0.695542 0.711517 -0.124361
C118  C     C_3   0.398126 0.276548 0.319780 -0.065417
C119  C     C_3   0.304459 0.584884 0.711519 -0.124364
C120  C     C_3   0.723451 0.398127 0.319780 -0.065417
C121  C     C_3   0.415114 0.304458 0.711517 -0.124362
C122  C     C_3   0.601875 0.723454 0.319782 -0.065418
C123  C     C_3   0.695102 0.584776 0.287677 -0.124210
C124  C     C_R   0.500000 0.000000 0.898143 0.024508
C125  C     C_3   0.276243 0.397985 0.679988 -0.064881
C126  C     C_3   0.584774 0.304900 0.287674 -0.124211
C127  C     C_3   0.397986 0.723755 0.679989 -0.064880
C128  C     C_3   0.304899 0.415226 0.287674 -0.124211
C129  C     C_3   0.723757 0.602015 0.679988 -0.064880
C130  C     C_3   0.415226 0.695101 0.287674 -0.124211
C131  C     C_3   0.602014 0.276243 0.679989 -0.064881
C132  C     C_3   0.889145 0.643857 0.406491 0.029549
C133  C     C_3   0.833857 0.595790 0.385379 -0.260657
C134  C     C_3   0.756343 0.618599 0.395266 -0.465645
C135  C     C_R   0.500000 1.000000 0.101924 0.027477
C136  C     C_3   0.892205 0.353816 0.593040 0.029525
C137  C     C_3   0.835561 0.401085 0.613671 -0.260541
C138  C     C_3   0.758674 0.376221 0.603820 -0.465379
C139  C     C_3   0.356159 0.889120 0.406490 0.029547
C140  C     C_3   0.404236 0.833839 0.385379 -0.260663
C141  C     C_3   0.381438 0.756323 0.395265 -0.465656
C142  C     C_3   0.646199 0.892226 0.593041 0.029518
C143  C     C_3   0.598939 0.835575 0.613673 -0.260544
C144  C     C_3   0.623815 0.758692 0.603822 -0.465365
C145  C     C_3   0.110864 0.356149 0.406488 0.029541
C146  C     C_R   1.000000 0.500000 0.898143 0.024508
C147  C     C_3   0.166149 0.404221 0.385376 -0.260666
C148  C     C_3   0.243664 0.381418 0.395263 -0.465647
C149  C     C_3   0.107802 0.646181 0.593041 0.029531
C150  C     C_3   0.164444 0.598909 0.613673 -0.260542
C151  C     C_3   0.241332 0.623771 0.603821 -0.465380
C152  C     C_3   0.643835 0.110884 0.406490 0.029551
C153  C     C_3   0.595757 0.166163 0.385378 -0.260661
C154  C     C_3   0.618551 0.243681 0.395265 -0.465659
C155  C     C_3   0.353802 0.107778 0.593041 0.029518
C156  C     C_3   0.401065 0.164427 0.613673 -0.260544
C157  C     C_R   0.999999 0.500000 0.101924 0.027477
C158  C     C_3   0.376193 0.241311 0.603822 -0.465368
C159  C     C_3   0.389130 0.143846 0.906490 0.029548
C160  C     C_3   0.333847 0.095773 0.885378 -0.260660
C161  C     C_3   0.256331 0.118574 0.895265 -0.465651
C162  C     C_3   0.392217 0.853807 0.093041 0.029521
C163  C     C_3   0.335569 0.901071 0.113673 -0.260543
C164  C     C_3   0.258685 0.876200 0.103822 -0.465371
C165  C     C_3   0.856158 0.389123 0.906489 0.029547
C166  C     C_3   0.904234 0.333842 0.885378 -0.260663
C167  C     C_3   0.881435 0.256325 0.895265 -0.465654
C168  C     C_R   0.002378 0.367321 0.479716 0.259713
C169  C     C_3   0.146195 0.392219 0.093041 0.029520
C170  C     C_3   0.098931 0.335571 0.113673 -0.260544
C171  C     C_3   0.123802 0.258687 0.103822 -0.465371
C172  C     C_3   0.610874 0.856156 0.906489 0.029545
C173  C     C_3   0.666156 0.904231 0.885377 -0.260663
C174  C     C_3   0.743672 0.881433 0.895263 -0.465652
C175  C     C_3   0.607785 0.146192 0.093041 0.029523
C176  C     C_3   0.664432 0.098927 0.113673 -0.260543
C177  C     C_3   0.741317 0.123796 0.103822 -0.465373
C178  C     C_3   0.143841 0.610877 0.906490 0.029548
C179  C     C_R   0.997052 0.632772 0.520495 0.267263
C180  C     C_3   0.095766 0.666158 0.885377 -0.260661
C181  C     C_3   0.118563 0.743675 0.895264 -0.465654
C182  C     C_3   0.853805 0.607781 0.093041 0.029520
C183  C     C_3   0.901070 0.664429 0.113673 -0.260543
C184  C     C_3   0.876199 0.741313 0.103822 -0.465371
C185  C     C_R   0.632678 0.002393 0.479716 0.259717
C186  C     C_R   0.367226 0.997029 0.520495 0.267225
C187  C     C_R   0.997635 0.632679 0.479716 0.259721
C188  C     C_R   0.435785 0.983509 0.418216 0.213336
C189  C     C_R   0.002958 0.367227 0.520495 0.267219
C190  C     C_R   0.367320 0.997609 0.479716 0.259718
C191  C     C_R   0.632771 0.002975 0.520495 0.267226
C192  C     C_R   0.502387 0.867321 0.979716 0.259715
C193  C     C_R   0.497036 0.132772 0.020495 0.267233
C194  C     C_R   0.132678 0.502387 0.979716 0.259716
C195  C     C_R   0.867227 0.497031 0.020495 0.267226
C196  C     C_R   0.497619 0.132679 0.979716 0.259719
C197  C     C_R   0.502967 0.867228 0.020495 0.267221
C198  C     C_R   0.867321 0.497612 0.979716 0.259717
C199  C     C_R   0.564536 0.985022 0.581847 0.207664
C200  C     C_R   0.132772 0.502968 0.020495 0.267224
C201  C     C_R   0.500000 0.000000 0.355766 0.594221
C202  C     C_R   0.500000 1.000000 0.644256 0.594764
C203  C     C_R   1.000000 0.500000 0.355766 0.594219
C204  C     C_R   0.000000 0.500000 0.644256 0.594765
C205  C     C_R   1.000000 0.500000 0.855766 0.594220
C206  C     C_R   1.000000 0.500000 0.144256 0.594765
C207  C     C_R   0.500000 0.000000 0.855766 0.594219
C208  C     C_R   0.500000 1.000000 0.144256 0.594765
C209  C     C_R   0.359992 0.139989 0.250003 0.553695
C210  C     C_R   0.016484 0.435783 0.418215 0.213351
C211  C     C_R   0.640252 0.859784 0.749981 0.532833
C212  C     C_R   0.860011 0.359992 0.250003 0.553696
C213  C     C_R   0.140216 0.640252 0.749981 0.532838
C214  C     C_R   0.640008 0.860011 0.250003 0.553697
C215  C     C_R   0.359748 0.140216 0.749981 0.532834
C216  C     C_R   0.139989 0.640008 0.250003 0.553697
C217  C     C_R   0.859784 0.359748 0.749981 0.532838
C218  C     C_R   0.360011 0.859992 0.750003 0.553695
C219  C     C_R   0.640216 0.140252 0.249981 0.532837
C220  C     C_R   0.859992 0.639989 0.750003 0.553694
C221  C     C_R   0.014991 0.564534 0.581847 0.207660
C222  C     C_R   0.140252 0.359784 0.249981 0.532834
C223  C     C_R   0.639989 0.140008 0.750003 0.553696
C224  C     C_R   0.359784 0.859748 0.249981 0.532837
C225  C     C_R   0.140008 0.360011 0.750003 0.553696
C226  C     C_R   0.859748 0.640216 0.249981 0.532835
C227  C     C_R   0.247077 0.804898 0.221866 0.222654
C228  C     C_R   0.746256 0.199384 0.780870 0.220662
C229  C     C_R   0.195102 0.247077 0.221866 0.222654
C230  C     C_R   0.800616 0.746257 0.780870 0.220663
C231  C     C_R   0.752924 0.195102 0.221866 0.222654
C232  C     C_R   0.564214 0.016492 0.418216 0.213335
C233  C     C_R   0.253743 0.800616 0.780870 0.220663
C234  C     C_R   0.804897 0.752923 0.221865 0.222655
C235  C     C_R   0.199384 0.253744 0.780870 0.220663
C236  C     C_R   0.246975 0.195015 0.778003 0.222389
C237  C     C_R   0.746222 0.800620 0.219073 0.221004
C238  C     C_R   0.195014 0.753026 0.778002 0.222389
C239  C     C_R   0.800621 0.253777 0.219073 0.221004
C240  C     C_R   0.753025 0.804985 0.778003 0.222388
C241  C     C_R   0.253778 0.199380 0.219073 0.221004
C242  C     C_R   0.804985 0.246974 0.778003 0.222389
C243  C     C_R   0.435462 0.014979 0.581847 0.207666
C244  C     C_R   0.199380 0.746222 0.219073 0.221005
C245  C     C_R   0.747077 0.304898 0.721866 0.222656
C246  C     C_R   0.246256 0.699384 0.280870 0.220660
C247  C     C_R   0.695102 0.747077 0.721866 0.222653
C248  C     C_R   0.300616 0.246257 0.280870 0.220662
C249  C     C_R   0.252924 0.695102 0.721866 0.222655
C250  C     C_R   0.753743 0.300616 0.280870 0.220664
C251  C     C_R   0.304898 0.252923 0.721866 0.222653
C252  C     C_R   0.699385 0.753744 0.280870 0.220662
C253  C     C_R   0.746975 0.695016 0.278003 0.222387
C254  C     C_R   0.483515 0.064216 0.918216 0.213323
C255  C     C_R   0.246222 0.300620 0.719073 0.221004
C256  C     C_R   0.695015 0.253025 0.278003 0.222389
C257  C     C_R   0.300621 0.753777 0.719073 0.221005
C258  C     C_R   0.253025 0.304985 0.278003 0.222388
C259  C     C_R   0.753778 0.699380 0.719073 0.221003
C260  C     C_R   0.304985 0.746975 0.278003 0.222388
C261  C     C_R   0.699380 0.246222 0.719073 0.221006
C262  C     C_R   0.005846 0.433593 0.459013 -0.042695
C263  C     C_R   0.003467 0.566554 0.541132 -0.045212
C264  C     C_R   0.566405 0.005852 0.459014 -0.042706
H1    H     H_    0.901538 0.326694 0.433352 0.144862
H2    H     H_    0.899903 0.798906 0.515734 0.190043
H3    H     H_    0.781275 0.605317 0.980324 0.127015
H4    H     H_    0.713488 0.545011 0.904738 0.184868
H5    H     H_    0.668761 0.554322 0.951287 0.167447
H6    H     H_    0.688264 0.689424 0.948689 0.141491
H7    H     H_    0.637282 0.656725 0.907364 0.149214
H8    H     H_    0.731939 0.679465 0.901649 0.166803
H9    H     H_    0.244069 0.572164 0.081395 0.172531
H10   H     H_    0.157815 0.603726 0.065140 0.128468
H11   H     H_    0.298897 0.600137 0.015735 0.190042
H12   H     H_    0.212473 0.635202 0.999826 0.159391
H13   H     H_    0.864825 0.712485 0.499829 0.159385
H14   H     H_    0.215581 0.728013 0.053289 0.144715
H15   H     H_    0.293040 0.735068 0.021391 0.135589
H16   H     H_    0.303107 0.693685 0.068766 0.155252
H17   H     H_    0.177439 0.951523 0.187697 0.093253
H18   H     H_    0.225255 0.948217 0.233346 0.142841
H19   H     H_    0.145797 0.892938 0.225545 0.071659
H20   H     H_    0.790354 0.075992 0.791350 0.085138
H21   H     H_    0.746493 0.060963 0.837210 0.140231
H22   H     H_    0.826458 0.115431 0.836329 0.126851
H23   H     H_    0.048477 0.177439 0.187697 0.093253
H24   H     H_    0.772020 0.715610 0.553294 0.144716
H25   H     H_    0.051783 0.225255 0.233346 0.142840
H26   H     H_    0.107063 0.145797 0.225545 0.071657
H27   H     H_    0.924008 0.790354 0.791349 0.085138
H28   H     H_    0.939038 0.746493 0.837210 0.140232
H29   H     H_    0.884569 0.826459 0.836328 0.126851
H30   H     H_    0.822561 0.048476 0.187698 0.093253
H31   H     H_    0.774744 0.051783 0.233347 0.142841
H32   H     H_    0.854203 0.107062 0.225545 0.071658
H33   H     H_    0.209645 0.924009 0.791349 0.085137
H34   H     H_    0.253506 0.939038 0.837210 0.140232
H35   H     H_    0.764970 0.793065 0.521394 0.135600
H36   H     H_    0.173540 0.884570 0.836328 0.126851
H37   H     H_    0.951523 0.822560 0.187697 0.093252
H38   H     H_    0.948216 0.774745 0.233345 0.142842
H39   H     H_    0.892937 0.854203 0.225544 0.071658
H40   H     H_    0.075992 0.209647 0.791351 0.085138
H41   H     H_    0.060964 0.253508 0.837211 0.140230
H42   H     H_    0.115433 0.173543 0.836330 0.126852
H43   H     H_    0.176433 0.048149 0.811267 0.092662
H44   H     H_    0.225128 0.051831 0.765899 0.143701
H45   H     H_    0.145663 0.107275 0.773474 0.073556
H46   H     H_    0.806360 0.803134 0.568767 0.155254
H47   H     H_    0.790317 0.923941 0.208360 0.083657
H48   H     H_    0.746003 0.938841 0.162612 0.140448
H49   H     H_    0.825987 0.884401 0.163301 0.126400
H50   H     H_    0.048147 0.823569 0.811264 0.092662
H51   H     H_    0.051830 0.774871 0.765898 0.143701
H52   H     H_    0.107274 0.854337 0.773472 0.073557
H53   H     H_    0.923941 0.209682 0.208362 0.083656
H54   H     H_    0.938843 0.253995 0.162614 0.140449
H55   H     H_    0.884404 0.174011 0.163302 0.126400
H56   H     H_    0.823568 0.951852 0.811265 0.092662
H57   H     H_    0.673317 0.901569 0.433339 0.144887
H58   H     H_    0.774871 0.948170 0.765899 0.143701
H59   H     H_    0.854337 0.892726 0.773473 0.073556
H60   H     H_    0.209683 0.076059 0.208361 0.083657
H61   H     H_    0.253996 0.061158 0.162613 0.140449
H62   H     H_    0.174012 0.115597 0.163302 0.126400
H63   H     H_    0.951852 0.176433 0.811266 0.092663
H64   H     H_    0.948170 0.225129 0.765899 0.143701
H65   H     H_    0.892726 0.145663 0.773474 0.073556
H66   H     H_    0.076059 0.790317 0.208362 0.083657
H67   H     H_    0.061157 0.746004 0.162614 0.140450
H68   H     H_    0.718725 0.894692 0.480324 0.127008
H69   H     H_    0.115595 0.825988 0.163302 0.126398
H70   H     H_    0.677439 0.451523 0.687698 0.093253
H71   H     H_    0.725255 0.448216 0.733346 0.142840
H72   H     H_    0.645797 0.392937 0.725545 0.071658
H73   H     H_    0.290354 0.575992 0.291350 0.085140
H74   H     H_    0.246492 0.560963 0.337210 0.140229
H75   H     H_    0.326458 0.615432 0.336329 0.126852
H76   H     H_    0.548478 0.677439 0.687697 0.093252
H77   H     H_    0.551783 0.725255 0.733345 0.142841
H78   H     H_    0.607062 0.645797 0.725545 0.071657
H79   H     H_    0.786518 0.955002 0.404740 0.184868
H80   H     H_    0.424008 0.290354 0.291350 0.085138
H81   H     H_    0.439037 0.246493 0.337210 0.140230
H82   H     H_    0.384568 0.326458 0.336329 0.126850
H83   H     H_    0.322563 0.548475 0.687700 0.093253
H84   H     H_    0.274745 0.551783 0.733348 0.142840
H85   H     H_    0.354203 0.607062 0.725547 0.071658
H86   H     H_    0.709646 0.424009 0.291350 0.085136
H87   H     H_    0.753506 0.439038 0.337210 0.140233
H88   H     H_    0.673541 0.384569 0.336328 0.126851
H89   H     H_    0.451523 0.322561 0.687697 0.093252
H90   H     H_    0.831240 0.945691 0.451290 0.167450
H91   H     H_    0.448217 0.274745 0.733346 0.142842
H92   H     H_    0.392937 0.354203 0.725545 0.071657
H93   H     H_    0.575993 0.709647 0.291352 0.085139
H94   H     H_    0.560965 0.753510 0.337212 0.140230
H95   H     H_    0.615434 0.673545 0.336331 0.126851
H96   H     H_    0.676436 0.548150 0.311269 0.092663
H97   H     H_    0.725129 0.551831 0.265901 0.143701
H98   H     H_    0.645663 0.607275 0.273477 0.073555
H99   H     H_    0.290317 0.423941 0.708361 0.083657
H100  H     H_    0.246004 0.438842 0.662613 0.140447
H101  H     H_    0.811742 0.810588 0.448690 0.141487
H102  H     H_    0.325988 0.384403 0.663302 0.126400
H103  H     H_    0.548148 0.323568 0.311265 0.092663
H104  H     H_    0.551830 0.274871 0.265898 0.143700
H105  H     H_    0.607275 0.354337 0.273473 0.073556
H106  H     H_    0.423942 0.709682 0.708362 0.083655
H107  H     H_    0.438844 0.753994 0.662614 0.140449
H108  H     H_    0.384405 0.674010 0.663303 0.126401
H109  H     H_    0.323567 0.451852 0.311266 0.092662
H110  H     H_    0.274871 0.448170 0.265899 0.143702
H111  H     H_    0.354337 0.392726 0.273474 0.073557
H112  H     H_    0.894679 0.281260 0.480330 0.127040
H113  H     H_    0.862726 0.843290 0.407366 0.149210
H114  H     H_    0.709683 0.576059 0.708361 0.083656
H115  H     H_    0.753996 0.561158 0.662613 0.140448
H116  H     H_    0.674012 0.615596 0.663302 0.126399
H117  H     H_    0.451852 0.676434 0.311266 0.092664
H118  H     H_    0.448169 0.725129 0.265899 0.143701
H119  H     H_    0.392726 0.645663 0.273475 0.073556
H120  H     H_    0.576058 0.290317 0.708362 0.083656
H121  H     H_    0.561157 0.246004 0.662614 0.140450
H122  H     H_    0.615595 0.325988 0.663302 0.126399
H123  H     H_    0.880684 0.700875 0.397026 0.161670
H124  H     H_    0.768071 0.820547 0.401650 0.166799
H125  H     H_    0.877916 0.642639 0.438358 0.136776
H126  H     H_    0.842344 0.600209 0.353425 0.245613
H127  H     H_    0.841324 0.538277 0.394254 0.153908
H128  H     H_    0.746930 0.614950 0.427228 0.118481
H129  H     H_    0.717375 0.581982 0.380354 0.157581
H130  H     H_    0.746222 0.675165 0.385441 0.191552
H131  H     H_    0.884667 0.296754 0.602687 0.163131
H132  H     H_    0.881794 0.354239 0.561053 0.139928
H133  H     H_    0.843875 0.397701 0.645684 0.244584
H134  H     H_    0.841780 0.458544 0.604416 0.152488
H135  H     H_    0.255924 0.927841 0.581396 0.172531
H136  H     H_    0.749498 0.378466 0.571800 0.119221
H137  H     H_    0.718761 0.412495 0.618250 0.158920
H138  H     H_    0.749708 0.319834 0.614247 0.194937
H139  H     H_    0.299144 0.880652 0.397022 0.161667
H140  H     H_    0.357375 0.877891 0.438356 0.136784
H141  H     H_    0.399819 0.842325 0.353425 0.245623
H142  H     H_    0.461748 0.841315 0.394255 0.153899
H143  H     H_    0.385089 0.746909 0.427228 0.118484
H144  H     H_    0.418059 0.717359 0.380353 0.157554
H145  H     H_    0.324872 0.746195 0.385442 0.191562
H146  H     H_    0.342179 0.896276 0.565143 0.128474
H147  H     H_    0.703263 0.884697 0.602687 0.163129
H148  H     H_    0.645776 0.881813 0.561054 0.139932
H149  H     H_    0.602324 0.843891 0.645686 0.244575
H150  H     H_    0.541479 0.841786 0.604419 0.152493
H151  H     H_    0.621571 0.749516 0.571802 0.119212
H152  H     H_    0.587546 0.718774 0.618252 0.158950
H153  H     H_    0.680202 0.749734 0.614250 0.194933
H154  H     H_    0.119328 0.299132 0.397021 0.161664
H155  H     H_    0.122095 0.357364 0.438355 0.136786
H156  H     H_    0.157662 0.399803 0.353423 0.245618
H157  H     H_    0.201105 0.899866 0.515730 0.190069
H158  H     H_    0.158677 0.461734 0.394252 0.153899
H159  H     H_    0.253077 0.385067 0.427226 0.118482
H160  H     H_    0.282630 0.418038 0.380352 0.157571
H161  H     H_    0.253789 0.324852 0.385438 0.191557
H162  H     H_    0.115341 0.703242 0.602689 0.163134
H163  H     H_    0.118214 0.645758 0.561054 0.139942
H164  H     H_    0.156130 0.602293 0.645685 0.244587
H165  H     H_    0.158224 0.541451 0.604417 0.152488
H166  H     H_    0.250508 0.621525 0.571801 0.119217
H167  H     H_    0.281243 0.587496 0.618252 0.158916
H168  H     H_    0.287529 0.864786 0.499831 0.159376
H169  H     H_    0.250299 0.680158 0.614249 0.194938
H170  H     H_    0.700851 0.119355 0.397023 0.161670
H171  H     H_    0.642617 0.122113 0.438357 0.136778
H172  H     H_    0.600176 0.157677 0.353425 0.245624
H173  H     H_    0.538245 0.158684 0.394254 0.153901
H174  H     H_    0.614898 0.253094 0.427228 0.118488
H175  H     H_    0.581927 0.282642 0.380353 0.157547
H176  H     H_    0.675116 0.253812 0.385441 0.191555
H177  H     H_    0.296740 0.115309 0.602688 0.163128
H178  H     H_    0.354225 0.118191 0.561054 0.139936
H179  H     H_    0.284396 0.771988 0.553299 0.144704
H180  H     H_    0.397681 0.156111 0.645686 0.244577
H181  H     H_    0.458525 0.158214 0.604418 0.152492
H182  H     H_    0.378437 0.250487 0.571802 0.119214
H183  H     H_    0.412464 0.281227 0.618252 0.158944
H184  H     H_    0.319806 0.250271 0.614250 0.194935
H185  H     H_    0.380664 0.200863 0.897025 0.161669
H186  H     H_    0.377900 0.142627 0.938357 0.136777
H187  H     H_    0.342334 0.100193 0.853424 0.245619
H188  H     H_    0.341320 0.038261 0.894253 0.153905
H189  H     H_    0.246917 0.114923 0.927227 0.118484
H190  H     H_    0.206942 0.764936 0.521398 0.135637
H191  H     H_    0.217366 0.081954 0.880352 0.157565
H192  H     H_    0.246204 0.175140 0.885441 0.191554
H193  H     H_    0.384684 0.796744 0.102688 0.163129
H194  H     H_    0.381805 0.854229 0.061054 0.139931
H195  H     H_    0.343885 0.897687 0.145685 0.244579
H196  H     H_    0.341783 0.958530 0.104417 0.152490
H197  H     H_    0.249508 0.878444 0.071802 0.119217
H198  H     H_    0.218769 0.912471 0.118252 0.158938
H199  H     H_    0.249723 0.819813 0.114249 0.194936
H200  H     H_    0.799142 0.380655 0.897022 0.161667
H201  H     H_    0.196872 0.806333 0.568769 0.155261
H202  H     H_    0.857375 0.377894 0.938356 0.136781
H203  H     H_    0.899816 0.342328 0.853424 0.245621
H204  H     H_    0.961746 0.341317 0.894254 0.153901
H205  H     H_    0.885087 0.246912 0.927227 0.118485
H206  H     H_    0.918057 0.217361 0.880352 0.157557
H207  H     H_    0.824870 0.246197 0.885441 0.191558
H208  H     H_    0.203257 0.384687 0.102689 0.163128
H209  H     H_    0.145773 0.381806 0.061054 0.139933
H210  H     H_    0.102315 0.343886 0.145686 0.244579
H211  H     H_    0.041471 0.341785 0.104418 0.152492
H212  H     H_    0.098390 0.673331 0.433260 0.145066
H213  H     H_    0.121558 0.249510 0.071802 0.119216
H214  H     H_    0.087531 0.218771 0.118252 0.158939
H215  H     H_    0.180189 0.249725 0.114250 0.194935
H216  H     H_    0.619341 0.799140 0.897022 0.161666
H217  H     H_    0.622104 0.857374 0.938356 0.136781
H218  H     H_    0.657669 0.899812 0.853423 0.245621
H219  H     H_    0.658681 0.961743 0.894252 0.153902
H220  H     H_    0.753085 0.885084 0.927226 0.118484
H221  H     H_    0.782636 0.918054 0.880351 0.157561
H222  H     H_    0.753800 0.824867 0.885440 0.191557
H223  H     H_    0.954963 0.213514 0.404729 0.184884
H224  H     H_    0.105416 0.718563 0.480287 0.126841
H225  H     H_    0.615319 0.203254 0.102689 0.163129
H226  H     H_    0.618198 0.145770 0.061054 0.139935
H227  H     H_    0.656117 0.102311 0.145686 0.244580
H228  H     H_    0.658217 0.041468 0.104418 0.152490
H229  H     H_    0.750494 0.121552 0.071802 0.119216
H230  H     H_    0.781232 0.087525 0.118252 0.158936
H231  H     H_    0.750280 0.180183 0.114250 0.194936
H232  H     H_    0.200857 0.619346 0.897024 0.161668
H233  H     H_    0.142621 0.622107 0.938357 0.136777
H234  H     H_    0.100186 0.657671 0.853424 0.245621
H235  H     H_    0.044983 0.786704 0.404823 0.184776
H236  H     H_    0.038253 0.658683 0.894252 0.153903
H237  H     H_    0.114911 0.753089 0.927226 0.118485
H238  H     H_    0.081942 0.782639 0.880351 0.157559
H239  H     H_    0.175129 0.753804 0.885440 0.191555
H240  H     H_    0.796743 0.615314 0.102689 0.163129
H241  H     H_    0.854227 0.618193 0.061054 0.139934
H242  H     H_    0.897686 0.656114 0.145685 0.244579
H243  H     H_    0.958529 0.658214 0.104417 0.152491
H244  H     H_    0.878444 0.750490 0.071801 0.119217
H245  H     H_    0.912471 0.781229 0.118251 0.158938
H246  H     H_    0.054480 0.831236 0.451414 0.167476
H247  H     H_    0.819812 0.750275 0.114249 0.194936
H248  H     H_    0.189560 0.811563 0.448678 0.141449
H249  H     H_    0.156792 0.862787 0.407456 0.149225
H250  H     H_    0.179396 0.768128 0.401588 0.166863
H251  H     H_    0.072143 0.255920 0.581395 0.172526
H252  H     H_    0.103709 0.342176 0.565144 0.128475
H253  H     H_    0.100118 0.201102 0.515732 0.190045
H254  H     H_    0.135191 0.287526 0.499829 0.159385
H255  H     H_    0.945673 0.168764 0.451272 0.167442
H256  H     H_    0.227995 0.284403 0.553295 0.144716
H257  H     H_    0.235050 0.206951 0.521392 0.135596
H258  H     H_    0.193660 0.196876 0.568765 0.155254
H259  H     H_    0.326684 0.098434 0.433339 0.144887
H260  H     H_    0.281275 0.105313 0.480324 0.127014
H261  H     H_    0.213483 0.045004 0.404739 0.184863
H262  H     H_    0.168760 0.054316 0.451288 0.167442
H263  H     H_    0.188260 0.189418 0.448689 0.141490
H264  H     H_    0.137277 0.156718 0.407365 0.149211
H265  H     H_    0.231933 0.179459 0.401649 0.166800
H266  H     H_    0.810569 0.188254 0.448691 0.141494
H267  H     H_    0.744071 0.072175 0.581394 0.172529
H268  H     H_    0.657810 0.103728 0.565145 0.128478
H269  H     H_    0.798881 0.100159 0.515730 0.190045
H270  H     H_    0.712451 0.135218 0.499829 0.159380
H271  H     H_    0.715562 0.228022 0.553295 0.144718
H272  H     H_    0.793010 0.235090 0.521391 0.135583
H273  H     H_    0.803096 0.193701 0.568763 0.155254
H274  H     H_    0.401550 0.826693 0.933350 0.144864
H275  H     H_    0.394688 0.781261 0.980329 0.127031
H276  H     H_    0.454977 0.713512 0.904729 0.184882
H277  H     H_    0.843257 0.137298 0.407354 0.149216
H278  H     H_    0.445684 0.668764 0.951272 0.167444
H279  H     H_    0.310580 0.688254 0.948689 0.141492
H280  H     H_    0.343270 0.637298 0.907352 0.149213
H281  H     H_    0.320519 0.731956 0.901655 0.166800
H282  H     H_    0.427844 0.244075 0.081395 0.172527
H283  H     H_    0.396282 0.157819 0.065143 0.128473
H284  H     H_    0.399869 0.298895 0.015732 0.190045
H285  H     H_    0.364801 0.212469 0.999828 0.159383
H286  H     H_    0.271995 0.215585 0.053293 0.144716
H287  H     H_    0.264937 0.293038 0.021391 0.135593
H288  H     H_    0.820506 0.231956 0.401658 0.166799
H289  H     H_    0.306324 0.303115 0.068764 0.155253
H290  H     H_    0.173314 0.401561 0.933341 0.144883
H291  H     H_    0.218725 0.394684 0.980325 0.127014
H292  H     H_    0.286513 0.454990 0.904739 0.184870
H293  H     H_    0.331239 0.445680 0.951287 0.167449
H294  H     H_    0.311738 0.310578 0.948689 0.141489
H295  H     H_    0.362720 0.343277 0.907364 0.149214
H296  H     H_    0.268064 0.320536 0.901650 0.166802
H297  H     H_    0.755919 0.427839 0.081393 0.172525
H298  H     H_    0.842179 0.396280 0.065146 0.128480
H299  H     H_    0.927874 0.744082 0.581396 0.172523
H300  H     H_    0.701114 0.399860 0.015726 0.190056
H301  H     H_    0.787544 0.364789 0.999830 0.159374
H302  H     H_    0.784411 0.271991 0.053299 0.144715
H303  H     H_    0.706969 0.264928 0.021389 0.135600
H304  H     H_    0.696877 0.306322 0.068760 0.155255
H305  H     H_    0.598430 0.173319 0.933321 0.144932
H306  H     H_    0.605342 0.218682 0.980318 0.126972
H307  H     H_    0.545008 0.286564 0.904763 0.184848
H308  H     H_    0.554366 0.331236 0.951324 0.167459
H309  H     H_    0.689463 0.311691 0.948690 0.141481
H310  H     H_    0.896302 0.657829 0.565144 0.128470
H311  H     H_    0.656747 0.362737 0.907392 0.149218
H312  H     H_    0.679453 0.268081 0.901637 0.166814
H313  H     H_    0.572161 0.755925 0.081394 0.172528
H314  H     H_    0.603721 0.842182 0.065143 0.128475
H315  H     H_    0.600138 0.701108 0.015731 0.190047
H316  H     H_    0.635204 0.787535 0.999828 0.159384
H317  H     H_    0.728010 0.784418 0.053293 0.144716
H318  H     H_    0.735070 0.706967 0.021390 0.135592
H319  H     H_    0.693682 0.696887 0.068763 0.155253
H320  H     H_    0.826687 0.598439 0.933340 0.144884
O1    O     O_3   0.500000 0.000000 0.250000 -0.459988
O2    O     O_R   0.500000 0.939270 0.662450 -0.546712
O3    O     O_3   0.664103 0.232083 0.684062 -0.530521
O4    O     O_3   0.961752 0.624712 0.396981 -0.545413
O5    O     O_3   0.964147 0.374567 0.602995 -0.553050
O6    O     O_3   0.375294 0.961731 0.396980 -0.545392
O7    O     O_3   0.625438 0.964165 0.602996 -0.553051
O8    O     O_3   0.038255 0.375290 0.396980 -0.545388
O9    O     O_3   0.035859 0.625431 0.602996 -0.553054
O10   O     O_3   0.624704 0.038272 0.396980 -0.545389
O11   O     O_3   0.374561 0.035838 0.602996 -0.553054
O12   O     O_3   0.461740 0.124708 0.896981 -0.545394
O13   O     O_R   0.939270 0.500000 0.337550 -0.547123
O14   O     O_3   0.464158 0.874564 0.102996 -0.553050
O15   O     O_3   0.875294 0.461734 0.896980 -0.545390
O16   O     O_3   0.125436 0.464160 0.102996 -0.553049
O17   O     O_3   0.538263 0.875293 0.896980 -0.545388
O18   O     O_3   0.535844 0.125436 0.102996 -0.553051
O19   O     O_3   0.124706 0.538267 0.896980 -0.545389
O20   O     O_3   0.874562 0.535840 0.102996 -0.553050
O21   O     O_R   0.060730 0.500000 0.662450 -0.546712
O22   O     O_R   1.000000 0.439270 0.837550 -0.547128
O23   O     O_R   1.000000 0.560730 0.162450 -0.546713
O24   O     O_R   0.560730 0.000000 0.837550 -0.547130
O25   O     O_R   0.439270 0.000000 0.162450 -0.546713
O26   O     O_R   1.000000 0.560730 0.837550 -0.547128
O27   O     O_R   1.000000 0.439270 0.162450 -0.546713
O28   O     O_R   0.439270 0.000000 0.837550 -0.547127
O29   O     O_3   0.500000 0.000000 0.750000 -0.459988
O30   O     O_R   0.560730 0.000000 0.162450 -0.546713
O31   O     O_R   0.414490 0.146150 0.273020 -0.523704
O32   O     O_R   0.585510 0.853850 0.726980 -0.528974
O33   O     O_R   0.853850 0.414490 0.273020 -0.523702
O34   O     O_R   0.146150 0.585510 0.726980 -0.528973
O35   O     O_R   0.585510 0.853850 0.273020 -0.523705
O36   O     O_R   0.414490 0.146150 0.726980 -0.528974
O37   O     O_R   0.146150 0.585510 0.273020 -0.523703
O38   O     O_R   0.853850 0.414490 0.726980 -0.528972
O39   O     O_R   0.414490 0.853850 0.726980 -0.524215
O40   O     O_3   1.000000 0.500000 0.250000 -0.459988
O41   O     O_R   0.585510 0.146150 0.273020 -0.529501
O42   O     O_R   0.853850 0.585510 0.726980 -0.524218
O43   O     O_R   0.146150 0.414490 0.273020 -0.529503
O44   O     O_R   0.585510 0.146150 0.726980 -0.524216
O45   O     O_R   0.414490 0.853850 0.273020 -0.529502
O46   O     O_R   0.146150 0.414490 0.726980 -0.524218
O47   O     O_R   0.853850 0.585510 0.273020 -0.529502
O48   O     O_R   0.914490 0.646150 0.773020 -0.523703
O49   O     O_R   0.085510 0.353850 0.226980 -0.528974
O50   O     O_R   0.353850 0.914490 0.773020 -0.523703
O51   O     O_3   1.000000 0.500000 0.750000 -0.459988
O52   O     O_R   0.646150 0.085510 0.226980 -0.528974
O53   O     O_R   0.085510 0.353850 0.773020 -0.523703
O54   O     O_R   0.914490 0.646150 0.226980 -0.528973
O55   O     O_R   0.646150 0.085510 0.773020 -0.523703
O56   O     O_R   0.353850 0.914490 0.226980 -0.528973
O57   O     O_R   0.914490 0.353850 0.226980 -0.524216
O58   O     O_R   0.085510 0.646150 0.773020 -0.529502
O59   O     O_R   0.353850 0.085510 0.226980 -0.524216
O60   O     O_R   0.646150 0.914490 0.773020 -0.529502
O61   O     O_R   0.085510 0.646150 0.226980 -0.524216
O62   O     O_R   0.500000 0.939270 0.337550 -0.547128
O63   O     O_R   0.914490 0.353850 0.773020 -0.529502
O64   O     O_R   0.646150 0.914490 0.226980 -0.524217
O65   O     O_R   0.353850 0.085510 0.773020 -0.529502
O66   O     O_3   0.999674 0.301426 0.460415 -0.541498
O67   O     O_3   0.993014 0.699036 0.539540 -0.544156
O68   O     O_3   0.698573 0.999695 0.460416 -0.541494
O69   O     O_3   0.300962 0.992984 0.539539 -0.544197
O70   O     O_3   0.000347 0.698577 0.460419 -0.541493
O71   O     O_3   0.007000 0.300963 0.539540 -0.544197
O72   O     O_3   0.301425 0.000309 0.460416 -0.541498
O73   O     O_R   0.500000 0.060730 0.662450 -0.546713
O74   O     O_3   0.699035 0.007025 0.539540 -0.544192
O75   O     O_3   0.499685 0.801427 0.960415 -0.541495
O76   O     O_3   0.492991 0.199036 0.039540 -0.544184
O77   O     O_3   0.198573 0.499687 0.960416 -0.541496
O78   O     O_3   0.800963 0.492985 0.039540 -0.544193
O79   O     O_3   0.500323 0.198575 0.960417 -0.541493
O80   O     O_3   0.507014 0.800964 0.039540 -0.544195
O81   O     O_3   0.801426 0.500313 0.960416 -0.541496
O82   O     O_3   0.199035 0.507016 0.039540 -0.544192
O83   O     O_3   0.240792 0.860853 0.195277 -0.544512
O84   O     O_R   0.060730 0.500000 0.337550 -0.547134
O85   O     O_3   0.732325 0.163954 0.815861 -0.532583
O86   O     O_3   0.139147 0.240792 0.195277 -0.544513
O87   O     O_3   0.836046 0.732325 0.815861 -0.532582
O88   O     O_3   0.759208 0.139146 0.195277 -0.544514
O89   O     O_3   0.267674 0.836047 0.815860 -0.532580
O90   O     O_3   0.860853 0.759207 0.195276 -0.544514
O91   O     O_3   0.163955 0.267676 0.815861 -0.532582
O92   O     O_3   0.240226 0.138706 0.804333 -0.545794
O93   O     O_3   0.732082 0.835896 0.184061 -0.530523
O94   O     O_3   0.138704 0.759776 0.804332 -0.545794
O95   O     O_R   0.939270 0.500000 0.662450 -0.546713
O96   O     O_3   0.835897 0.267916 0.184062 -0.530522
O97   O     O_3   0.759775 0.861295 0.804332 -0.545794
O98   O     O_3   0.267917 0.164103 0.184061 -0.530523
O99   O     O_3   0.861294 0.240225 0.804332 -0.545794
O100  O     O_3   0.164103 0.732083 0.184061 -0.530523
O101  O     O_3   0.740792 0.360853 0.695277 -0.544511
O102  O     O_3   0.232324 0.663954 0.315861 -0.532594
O103  O     O_3   0.639147 0.740792 0.695277 -0.544514
O104  O     O_3   0.336046 0.232325 0.315861 -0.532582
O105  O     O_3   0.259209 0.639145 0.695278 -0.544512
O106  O     O_R   0.500000 0.060730 0.337550 -0.547128
O107  O     O_3   0.767675 0.336046 0.315861 -0.532578
O108  O     O_3   0.360853 0.259208 0.695277 -0.544514
O109  O     O_3   0.663956 0.767678 0.315861 -0.532582
O110  O     O_3   0.740227 0.638707 0.304334 -0.545794
O111  O     O_3   0.232083 0.335896 0.684061 -0.530524
O112  O     O_3   0.638705 0.259775 0.304332 -0.545793
O113  O     O_3   0.335898 0.767916 0.684062 -0.530521
O114  O     O_3   0.259774 0.361295 0.304332 -0.545795
O115  O     O_3   0.767917 0.664103 0.684061 -0.530524
O116  O     O_3   0.361294 0.740225 0.304333 -0.545794
Zn1   Zn    Zn3+2 0.413190 0.000000 0.217350 0.940990
Zn2   Zn    Zn3+2 0.086810 0.500000 0.282650 0.940689
Zn3   Zn    Zn3+2 0.500000 0.913190 0.717350 0.940990
Zn4   Zn    Zn3+2 0.500000 0.086810 0.282650 0.940693
Zn5   Zn    Zn3+2 0.086810 0.500000 0.717350 0.940989
Zn6   Zn    Zn3+2 0.913190 0.500000 0.282650 0.940697
Zn7   Zn    Zn3+2 0.500000 0.086810 0.717350 0.940990
Zn8   Zn    Zn3+2 0.500000 0.913190 0.282650 0.940692
Zn9   Zn    Zn3+2 0.586810 0.000000 0.782650 0.940691
Zn10  Zn    Zn3+2 0.000000 0.413190 0.217350 0.940990
Zn11  Zn    Zn3+2 1.000000 0.586810 0.782650 0.940693
Zn12  Zn    Zn3+2 0.586810 0.000000 0.217350 0.940990
Zn13  Zn    Zn3+2 0.413190 0.000000 0.782650 0.940693
Zn14  Zn    Zn3+2 1.000000 0.586810 0.217350 0.940991
Zn15  Zn    Zn3+2 1.000000 0.413190 0.782650 0.940692
Zn16  Zn    Zn3+2 0.913190 0.500000 0.717350 0.940989

loop_
_geom_bond_atom_site_label_1
_geom_bond_atom_site_label_2
_ccdc_geom_bond_type
C230  O87   S    
C75   H289  S    
C210  C262  A    
C172  H216  S    
C166  H203  S    
C52   H113  S    
C82   H302  S    
C126  O112  S    
C121  H91   S    
C9    C193  A    
C141  H145  S    
C154  H175  S    
C104  O91   S    
C49   H24   S    
C86   H314  S    
C67   H270  S    
C119  H83   S    
C218  O50   A    
C35   C124  A    
C145  O8    S    
C120  O107  S    
C11   C195  A    
C109  H59   S    
C132  H123  S    
C50   H68   S    
C133  H126  S    
C148  H160  S    
C45   H288  S    
C130  O116  S    
C106  H47   S    
C211  O32   A    
C167  H205  S    
C143  C144  S    
O1    Zn12  S    
C6    C188  A    
C143  H150  S    
O38   Zn16  S    
C170  H211  S    
C41   C42   A    
C78   H294  S    
C182  C183  S    
C83   H305  S    
C118  H80   S    
C239  O96   S    
C161  H192  S    
C59   H248  S    
C103  H37   S    
C179  C263  A    
C121  O108  S    
C113  C243  A    
C179  O67   S    
C47   C48   S    
C217  O63   A    
C180  H234  S    
C110  H62   S    
C101  C188  A    
C255  O111  S    
C202  O73   A    
C223  O44   A    
C195  C198  A    
C60   H252  S    
C118  O104  S    
C9    C46   A    
C104  H40   S    
C254  O12   S    
C158  H183  S    
C10   C41   A    
C122  H95   S    
C12   C196  A    
C52   H101  S    
C102  H33   S    
C100  H31   S    
O55   Zn9   S    
C165  H200  S    
C109  O97   S    
C216  O61   A    
C120  H87   S    
C90   C204  S    
C73   C74   S    
C58   H235  S    
C108  H53   S    
C183  H243  S    
C172  O17   S    
C109  H56   S    
C85   H309  S    
C51   C52   S    
C252  O109  S    
C150  H165  S    
C12   C254  A    
C140  C141  S    
C209  O31   A    
C97   H20   S    
C94   H11   S    
C89   H320  S    
C129  H114  S    
C59   H249  S    
O63   Zn15  S    
C33   C227  A    
C184  H245  S    
C165  O15   S    
O54   Zn14  S    
C127  H108  S    
C187  O70   S    
C8    C35   A    
C97   O85   S    
C118  H82   S    
C169  H209  S    
C43   C44   S    
C37   C38   A    
O30   Zn12  S    
C144  H153  S    
C138  H138  S    
C191  O74   S    
C175  C176  S    
C232  O10   S    
C130  H119  S    
C134  H129  S    
C178  H232  S    
C113  C199  A    
C244  O100  S    
C87   H315  S    
C59   H250  S    
O95   Zn16  S    
O36   Zn7   S    
C139  H139  S    
C105  H43   S    
C99   H28   S    
C126  H103  S    
C61   H254  S    
C164  H197  S    
C62   H257  S    
C250  O107  S    
C1    C79   A    
C176  H227  S    
C200  O82   S    
C178  O19   S    
C91   C92   S    
C30   C220  S    
O61   Zn14  S    
C65   H264  S    
C131  H120  S    
O53   Zn15  S    
C84   H307  S    
C220  O42   A    
O21   Zn5   S    
C132  H125  S    
O29   Zn3   S    
C139  C140  S    
C73   H282  S    
C115  H71   S    
C131  H122  S    
C63   H260  S    
C104  H41   S    
C81   H301  S    
C156  C158  S    
C5    C189  A    
C53   H146  S    
O29   Zn13  S    
C156  H181  S    
C25   C251  A    
C66   H267  S    
C76   O77   S    
C8    C192  A    
C136  H131  S    
C148  H161  S    
C31   C229  A    
C214  O35   A    
C214  O64   A    
C189  O71   S    
C112  O5    S    
C111  O99   S    
C180  H236  S    
C192  O75   S    
C110  H60   S    
C2    C14   A    
O73   Zn7   S    
C151  H167  S    
C19   C241  A    
C149  H162  S    
C33   C224  S    
C107  H51   S    
C51   H79   S    
C155  C156  S    
C122  H93   S    
C66   H268  S    
O51   Zn5   S    
C77   H293  S    
C253  O110  S    
C123  H97   S    
C197  O80   S    
C168  C262  A    
C203  O13   A    
O1    Zn1   S    
C251  O108  S    
C53   H135  S    
O84   Zn2   S    
C79   C210  A    
C5    C36   A    
C241  O98   S    
C147  H158  S    
C85   H311  S    
C147  C148  S    
C114  H69   S    
C245  C261  A    
C97   H22   S    
C129  H116  S    
C125  H100  S    
C53   C54   S    
C144  H151  S    
C74   H284  S    
C127  H106  S    
C64   H262  S    
O51   Zn16  S    
C77   H292  S    
O50   Zn13  S    
C153  H173  S    
C26   C255  A    
C102  H36   S    
C117  H78   S    
O29   Zn9   S    
C170  C171  S    
C26   C225  S    
C203  O84   A    
C130  H117  S    
C140  H142  S    
C207  O28   A    
O106  Zn4   S    
C141  H143  S    
C43   O66   S    
C159  H185  S    
C49   H35   S    
C137  H133  S    
C47   H310  S    
C105  H45   S    
C74   H285  S    
C194  C200  A    
C98   O86   S    
C164  H199  S    
C259  O115  S    
C229  O86   S    
C76   H291  S    
C63   O72   S    
C257  O113  S    
C89   C91   S    
O57   Zn10  S    
C16   C200  A    
C161  H189  S    
C152  H171  S    
O25   Zn1   S    
C66   C67   S    
C173  C174  S    
C146  C205  S    
C19   C248  A    
C20   C247  A    
C250  C256  A    
O24   Zn9   S    
C174  H221  S    
C231  O88   S    
C209  O59   A    
C36   C263  A    
C32   C228  A    
C25   C215  S    
C90   C221  A    
C100  H30   S    
C208  O30   A    
C21   C250  A    
C169  O16   S    
C24   C157  A    
C120  H86   S    
C247  O103  S    
C20   C240  A    
C228  O85   S    
C177  H230  S    
C65   H265  S    
C227  O83   S    
C92   H7    S    
C222  O43   A    
C114  H66   S    
C93   H9    S    
C92   H6    S    
C83   C84   S    
C72   H280  S    
C193  C196  A    
C155  O11   S    
C163  H195  S    
C70   C71   S    
C215  O65   A    
C248  C258  A    
C184  H244  S    
C21   C239  A    
C182  H241  S    
C147  H156  S    
C173  H219  S    
C181  H237  S    
C55   H190  S    
C145  H154  S    
C138  H137  S    
C245  O101  S    
C49   H46   S    
C35   O17   S    
C226  O54   A    
C98   H23   S    
C56   H224  S    
C194  O77   S    
C64   H261  S    
C206  O27   A    
O41   Zn4   S    
C54   C55   S    
C95   H16   S    
C232  C264  A    
C166  H204  S    
C82   H303  S    
C185  O68   S    
C136  C137  S    
C154  H176  S    
C102  H34   S    
C46   O18   S    
C5    C112  A    
C55   H179  S    
C142  H147  S    
C67   H269  S    
C178  H233  S    
C96   H17   S    
C21   C212  S    
C243  O11   S    
C43   H112  S    
C111  H65   S    
C126  H105  S    
C199  O7    S    
C37   C264  A    
C109  H58   S    
C193  O76   S    
C18   C245  A    
C188  O6    S    
C166  C167  S    
O65   Zn13  S    
C128  H109  S    
O27   Zn10  S    
C56   C58   S    
C143  H149  S    
C101  C232  A    
C34   C36   A    
C78   H295  S    
C161  H191  S    
C162  H193  S    
C63   C64   S    
C52   H124  S    
C119  H85   S    
C152  C153  S    
C162  O14   S    
C22   C213  S    
C225  O46   A    
C150  C151  S    
C252  C253  A    
C134  H128  S    
C70   O75   S    
C119  O105  S    
C70   H274  S    
C69   H272  S    
C45   H266  S    
C106  H49   S    
C87   C88   S    
C258  O114  S    
C108  H55   S    
O39   Zn3   S    
C99   O87   S    
C125  O111  S    
C131  O3    S    
C172  H217  S    
O40   Zn14  S    
C100  H32   S    
C175  H226  S    
C72   H281  S    
C211  O60   A    
C120  H88   S    
C48   H13   S    
C11   C68   A    
O23   Zn14  S    
C114  O100  S    
C238  O94   S    
C158  H184  S    
C165  C166  S    
C218  O39   A    
C93   O82   S    
C98   H26   S    
C43   H1    S    
C123  O110  S    
C10   C194  A    
C60   O71   S    
C94   H12   S    
C92   H8    S    
O13   Zn6   S    
C96   O83   S    
C179  C187  A    
C224  O45   A    
C171  H214  S    
C127  H107  S    
C246  O102  S    
C11   C42   A    
O51   Zn15  S    
C169  H208  S    
C27   C234  A    
C46   C135  A    
O44   Zn7   S    
C204  O95   A    
C217  O38   A    
C103  H38   S    
C159  O12   S    
C219  O41   A    
C25   C236  A    
C149  O9    S    
C80   H298  S    
C88   H317  S    
C134  H130  S    
C75   H287  S    
C235  C236  A    
C181  H239  S    
C58   H246  S    
C116  H73   S    
C139  O6    S    
C111  H64   S    
C17   C216  S    
C57   O19   S    
C256  O112  S    
C126  H104  S    
C18   C242  A    
O62   Zn8   S    
C108  O96   S    
C107  O94   S    
C61   H253  S    
C205  O26   A    
C95   H14   S    
C164  H198  S    
C57   C146  A    
C62   H258  S    
C76   H290  S    
C7    C191  A    
C176  H228  S    
C121  H92   S    
O58   Zn11  S    
C154  H174  S    
O40   Zn10  S    
C145  C147  S    
C248  O104  S    
C185  C191  A    
C219  O52   A    
O59   Zn1   S    
C86   H313  S    
C152  H170  S    
C136  O5    S    
C65   H263  S    
C175  O18   S    
C84   H308  S    
C96   H19   S    
C27   C253  A    
C39   C40   A    
C213  O34   A    
C84   C85   S    
C29   C231  A    
C124  C254  A    
C133  H127  S    
C15   C198  A    
C86   C87   S    
C202  O2    A    
C167  H206  S    
C91   H5    S    
C58   C59   S    
C131  H121  S    
O32   Zn3   S    
C63   H259  S    
C9    C40   A    
C104  H42   S    
C168  C189  A    
C81   H300  S    
C60   C61   S    
C89   H3    S    
C159  H186  S    
C233  C238  A    
C83   H306  S    
C31   C222  S    
C229  C241  A    
O28   Zn13  S    
C100  O88   S    
C251  C255  A    
C159  C160  S    
C13   C15   A    
C48   H2    S    
C136  H132  S    
C98   H25   S    
C50   C51   S    
C220  O48   A    
C113  C202  S    
C110  H61   S    
C15   C41   A    
C226  O47   A    
C60   H251  S    
C48   C49   S    
C75   H286  S    
C158  H182  S    
C124  C207  S    
C133  C134  S    
C208  O25   A    
C165  H202  S    
C132  O4    S    
C223  O55   A    
C68   C157  A    
C32   C223  S    
C44   C45   S    
C162  C163  S    
C184  H247  S    
C54   H168  S    
C148  H159  S    
C19   C209  S    
C1    O4    S    
C150  H164  S    
C157  C206  S    
C2    C135  A    
C249  C257  A    
C221  C263  A    
C97   H21   S    
C178  C180  S    
C129  H115  S    
C185  C264  A    
C125  H99   S    
C116  O102  S    
C144  H152  S    
O52   Zn12  S    
C240  O97   S    
C99   H29   S    
C160  H188  S    
C64   C65   S    
O47   Zn6   S    
C12   C39   A    
C153  H172  S    
C115  O101  S    
C149  C150  S    
C117  H77   S    
C128  H111  S    
C237  O93   S    
C201  O106  A    
C130  H118  S    
C88   H319  S    
O60   Zn9   S    
C235  O91   S    
C87   H316  S    
C2    O14   S    
C116  H75   S    
C94   C95   S    
C139  H140  S    
O64   Zn12  S    
C196  O79   S    
C246  C260  A    
C105  H44   S    
C71   C72   S    
C224  O56   A    
C155  H177  S    
O1    Zn8   S    
C62   H256  S    
C151  H166  S    
C142  C143  S    
C170  H210  S    
C80   O78   S    
C234  C237  A    
C117  H76   S    
C123  H96   S    
O29   Zn7   S    
C190  O72   S    
C22   C238  A    
C23   C214  S    
C26   C235  A    
C261  O3    S    
C186  C190  A    
C93   C94   S    
C213  O58   A    
C182  H240  S    
C55   H201  S    
C169  C170  S    
C230  C240  A    
C163  C164  S    
C90   C112  A    
C183  C184  S    
C106  H48   S    
C210  O8    S    
C81   C82   S    
C73   H283  S    
C115  H72   S    
C174  H222  S    
C186  O69   S    
C108  H54   S    
C23   C252  A    
O26   Zn11  S    
C128  O114  S    
C4    C187  A    
O51   Zn11  S    
C234  O90   S    
C221  O9    S    
C23   C237  A    
C50   O68   S    
C20   C211  S    
C117  O103  S    
C54   H157  S    
C56   H212  S    
O48   Zn11  S    
C201  O62   A    
C177  H229  S    
O56   Zn1   S    
C29   C256  A    
O46   Zn5   S    
C114  H67   S    
C171  H213  S    
C160  H187  S    
C127  O113  S    
C177  H231  S    
C149  H163  S    
O43   Zn2   S    
C89   O81   S    
C107  H52   S    
C122  O109  S    
C125  H102  S    
C17   C244  A    
C132  C133  S    
C171  H215  S    
C182  O20   S    
C8    C39   A    
C204  O21   A    
C31   C258  A    
C123  H98   S    
C77   C78   S    
C206  O23   A    
C56   O70   S    
C260  O116  S    
C103  H39   S    
C212  O33   A    
C183  H242  S    
C69   H273  S    
C16   C24   A    
C138  H136  S    
C80   H297  S    
C85   H312  S    
C236  O92   S    
C13   O15   S    
C61   C62   S    
C13   C146  A    
C44   H255  S    
C99   H27   S    
C216  O37   A    
C249  O105  S    
O35   Zn8   S    
O34   Zn5   S    
C83   O79   S    
O33   Zn6   S    
C163  H196  S    
C50   H57   S    
C4    C34   A    
C95   H15   S    
C74   C75   S    
C34   C262  A    
C73   O76   S    
C30   C259  A    
C106  O93   S    
C82   H304  S    
C212  O57   A    
C10   C57   A    
C121  H89   S    
C76   C77   S    
C3    C38   A    
C22   C249  A    
C101  C201  S    
C231  C239  A    
C47   H299  S    
C142  H148  S    
C192  C197  A    
O40   Zn2   S    
C140  H141  S    
C155  H178  S    
C96   H18   S    
O2    Zn3   S    
C141  H144  S    
C142  O7    S    
C67   C69   S    
C168  O66   S    
C137  H134  S    
C86   O80   S    
C32   C261  A    
C227  C244  A    
C167  H207  S    
O37   Zn2   S    
C128  H110  S    
C119  H84   S    
C6    C190  A    
C118  H81   S    
C6    C37   A    
C207  O24   A    
C3    C243  A    
C78   H296  S    
C24   O16   S    
O40   Zn6   S    
C162  H194  S    
C110  O98   S    
C176  C177  S    
C44   H223  S    
C79   C203  S    
C129  O115  S    
C242  O99   S    
O42   Zn16  S    
C151  H169  S    
C71   H276  S    
C47   O67   S    
C70   H275  S    
C69   H271  S    
C222  O49   A    
C16   C42   A    
C45   H277  S    
C172  C173  S    
C71   H278  S    
C115  H70   S    
C174  H220  S    
C103  O90   S    
C28   C218  S    
C180  C181  S    
C225  O53   A    
C80   C81   S    
C175  H225  S    
C247  C259  A    
C27   C226  S    
O31   Zn4   S    
C137  C138  S    
C28   C233  A    
C3    C186  A    
C173  H218  S    
C1    C4    A    
C160  C161  S    
C30   C230  A    
C51   H90   S    
C93   H10   S    
O45   Zn8   S    
C107  H50   S    
C72   H279  S    
C17   C246  A    
C102  O89   S    
C122  H94   S    
C33   C260  A    
C105  O92   S    
C68   O20   S    
C7    C38   A    
C53   O69   S    
C156  H180  S    
C7    C199  A    
C14   C197  A    
C233  O89   S    
O49   Zn10  S    
C66   O74   S    
O1    Zn4   S    
C14   C40   A    
C205  O22   A    
C29   C219  S    
C228  C242  A    
C28   C257  A    
C88   H318  S    
C152  O10   S    
C181  H238  S    
C116  H74   S    
O22   Zn15  S    
C145  H155  S    
C198  O81   S    
C111  H63   S    
C153  C154  S    
C18   C217  S    
C215  O36   A    
C91   H4    S    
C195  O78   S    
C135  C208  S    
