data_str_m1_o1_o15_f0_pcu.sym.150
_audit_creation_date              2012-12-10T17:58:14-0500
_audit_creation_method            fapswitch 2.2
_symmetry_space_group_name_H-M    P1
_symmetry_Int_Tables_number       1
_space_group_crystal_system       triclinic
_cell_length_a                    18.149604
_cell_length_b                    26.025319
_cell_length_c                    18.487673
_cell_angle_alpha                 90.623213
_cell_angle_beta                  90.231974
_cell_angle_gamma                 90.307174
_cell_volume                      8731.92244937

loop_
_atom_site_label
_atom_site_type_symbol
_atom_type_description
_atom_site_fract_x
_atom_site_fract_y
_atom_site_fract_z
_atom_type_partial_charge
C1    C     C_R   0.643142 0.747952 0.362669 0.952781
C2    C     C_R   0.860408 0.748413 0.141322 0.951251
C3    C     C_R   0.701830 0.704852 0.258393 0.263211
C4    C     C_R   0.687471 0.776228 0.756036 0.275655
C5    C     C_R   0.327063 0.228614 0.227629 0.296394
C6    C     C_R   0.330836 0.742784 0.228435 0.331947
C7    C     C_R   0.688459 0.217173 0.754648 0.322444
C8    C     C_R   0.206838 0.710108 0.758706 0.289465
C9    C     C_R   0.806884 0.293028 0.251386 0.301607
C10   C     C_R   0.830677 0.759315 0.272240 0.322843
C11   C     C_R   0.182716 0.226670 0.734578 0.256439
C12   C     C_R   0.185861 0.265076 0.260873 0.255767
C13   C     C_R   0.859032 0.250130 0.139473 1.038070
C14   C     C_R   0.820005 0.720697 0.736054 0.279922
C15   C     C_R   0.813240 0.283601 0.743599 0.323443
C16   C     C_R   0.197703 0.789786 0.247738 0.283170
C17   C     C_R   0.140577 0.749719 0.860633 1.026999
C18   C     C_R   0.142963 0.752038 0.137487 0.949514
C19   C     C_R   0.860376 0.250861 0.859589 0.993179
C20   C     C_R   0.859029 0.749707 0.860457 1.050973
C21   C     C_R   0.141433 0.249498 0.138237 1.055151
C22   C     C_R   0.701273 0.251599 0.309334 -0.352895
C23   C     C_R   0.304571 0.754284 0.697627 -0.361448
C24   C     C_R   0.304441 0.249235 0.696065 -0.405991
C25   C     C_R   0.360148 0.249642 0.640065 0.993242
C26   C     C_R   0.707129 0.741443 0.314692 -0.381959
C27   C     C_R   0.700299 0.749387 0.691217 -0.374880
C28   C     C_R   0.306140 0.241298 0.299861 -0.369119
C29   C     C_R   0.308387 0.756099 0.299228 -0.350909
C30   C     C_R   0.698577 0.249055 0.693878 -0.349804
C31   C     C_R   0.200758 0.751004 0.808371 -0.347787
C32   C     C_R   0.803753 0.253805 0.197084 -0.376807
C33   C     C_R   0.809752 0.741366 0.202867 -0.373714
C34   C     C_R   0.197925 0.248979 0.804009 -0.366798
C35   C     C_R   0.201156 0.248587 0.190394 -0.351473
C36   C     C_R   0.360005 0.750966 0.640242 1.031962
C37   C     C_R   0.803613 0.745774 0.802650 -0.410942
C38   C     C_R   0.803187 0.251833 0.804460 -0.332270
C39   C     C_R   0.206156 0.757611 0.187002 -0.355758
C40   C     C_R   0.433249 0.973067 0.501732 -0.137738
C41   C     C_R   0.566826 0.026939 0.498395 -0.130871
C42   C     C_R   0.566971 0.973601 0.498461 -0.116717
C43   C     C_R   0.433105 0.026399 0.501657 -0.146017
C44   C     C_R   0.933233 0.473059 0.000672 -0.111627
C45   C     C_R   0.066849 0.526945 0.998935 -0.110018
C46   C     C_R   0.066989 0.473606 0.998961 -0.128073
C47   C     C_R   0.641198 0.250353 0.361340 1.058397
C48   C     C_R   0.933089 0.526390 0.000638 -0.133256
C49   C     C_R   0.499885 0.053632 0.500002 -0.019156
C50   C     C_R   0.500178 0.946371 0.500114 -0.022990
C51   C     C_R   0.999887 0.553630 0.999820 -0.027107
C52   C     C_R   0.000178 0.446369 0.999876 -0.029677
C53   C     C_R   0.500129 0.890328 0.500056 0.852073
C54   C     C_R   0.499886 0.109673 0.499994 0.840871
C55   C     C_R   0.000129 0.390327 0.999970 0.865378
C56   C     C_R   0.999886 0.609673 0.999934 0.838668
C57   C     C_R   0.494462 0.609847 0.500124 0.833520
C58   C     C_R   0.641397 0.250756 0.638691 0.977726
C59   C     C_R   0.495197 0.390010 0.501305 0.819377
C60   C     C_R   0.994274 0.109675 0.999478 0.854671
C61   C     C_R   0.992166 0.889764 0.000725 0.909849
C62   C     C_R   0.418951 0.548313 0.378879 0.276620
C63   C     C_R   0.499041 0.451478 0.641201 0.249889
C64   C     C_R   0.482947 0.553913 0.637889 0.301951
C65   C     C_R   0.410493 0.443755 0.389872 0.289716
C66   C     C_R   0.945884 0.047876 0.866775 0.274109
C67   C     C_R   0.933431 0.950896 0.135265 0.306955
C68   C     C_R   0.951817 0.054748 0.130795 0.238432
C69   C     C_R   0.360245 0.750898 0.359361 0.893529
C70   C     C_R   0.941266 0.944389 0.870762 0.285933
C71   C     C_R   0.417551 0.518566 0.314191 0.140292
C72   C     C_R   0.539347 0.480811 0.692498 0.132069
C73   C     C_R   0.529706 0.534560 0.691242 0.256772
C74   C     C_R   0.411094 0.464500 0.320238 0.255251
C75   C     C_R   0.964293 0.020759 0.802735 0.132066
C76   C     C_R   0.948794 0.979156 0.200855 0.201639
C77   C     C_R   0.972159 0.030186 0.193598 0.231446
C78   C     C_R   0.963339 0.966579 0.805754 0.264425
C79   C     C_R   0.448227 0.471055 0.445106 -0.132630
C80   C     C_R   0.360103 0.248134 0.359081 1.009513
C81   C     C_R   0.482282 0.527928 0.570286 -0.133079
C82   C     C_R   0.486309 0.473951 0.572072 -0.092324
C83   C     C_R   0.449814 0.525427 0.441641 -0.098598
C84   C     C_R   0.960230 0.970717 0.935654 -0.137199
C85   C     C_R   0.963103 0.027419 0.065674 -0.106916
C86   C     C_R   0.956711 0.972943 0.067754 -0.118439
C87   C     C_R   0.964323 0.024887 0.933616 -0.151570
C88   C     C_R   0.476490 0.445517 0.506365 0.013205
C89   C     C_R   0.474931 0.553991 0.503215 0.019620
C90   C     C_R   0.968019 0.944656 0.002054 0.015425
C91   C     C_R   0.641732 0.749047 0.637821 1.054898
C92   C     C_R   0.974662 0.053393 0.999176 -0.003086
C93   C     C_R   0.247559 0.717728 0.696433 0.221839
C94   C     C_R   0.750179 0.294359 0.304976 0.293996
C95   C     C_R   0.774675 0.769461 0.322690 0.314622
C96   C     C_R   0.230587 0.238866 0.678565 0.192214
C97   C     C_R   0.230879 0.247383 0.315600 0.272614
C98   C     C_R   0.766025 0.721082 0.679787 0.280707
C99   C     C_R   0.763437 0.278878 0.684926 0.218350
C100  C     C_R   0.238145 0.778341 0.308984 0.208291
C101  C     C_R   0.745768 0.217810 0.197031 0.258892
C102  C     C_R   0.140779 0.249860 0.859958 0.927803
C103  C     C_R   0.249434 0.793927 0.805358 0.226342
C104  C     C_R   0.269618 0.269639 0.817823 0.296472
C105  C     C_R   0.742648 0.713461 0.196389 0.192978
C106  C     C_R   0.733532 0.767132 0.814858 0.209105
C107  C     C_R   0.270842 0.227034 0.173238 0.296893
C108  C     C_R   0.275578 0.732940 0.176510 0.319297
C109  C     C_R   0.739636 0.220605 0.812431 0.238930
C110  C     C_R   0.707430 0.210143 0.260686 0.312888
C111  C     C_R   0.305792 0.793944 0.751397 0.297685
C112  C     C_R   0.324871 0.257851 0.768440 0.225899
H1    H     H_    0.380991 0.952808 0.503081 0.190406
H2    H     H_    0.478024 0.397711 0.159315 0.419318
H3    H     H_    0.514199 0.525996 0.180583 0.394785
H4    H     H_    0.639560 0.391358 0.696878 0.346830
H5    H     H_    0.118296 0.039374 0.329184 0.403147
H6    H     H_    0.082180 0.913295 0.665498 0.399078
H7    H     H_    0.084072 0.046376 0.706435 0.370075
H8    H     H_    0.015828 0.918879 0.336633 0.412852
H9    H     H_    0.355048 0.655438 0.463412 0.322873
H10   H     H_    0.327623 0.375655 0.642957 0.369047
H11   H     H_    0.350125 0.608231 0.766668 0.404358
H12   H     H_    0.619079 0.047203 0.497021 0.187175
H13   H     H_    0.254628 0.369684 0.342971 0.397662
H14   H     H_    0.807080 0.043610 0.960054 0.411946
H15   H     H_    0.808727 0.848235 0.066438 0.389637
H16   H     H_    0.897002 0.140763 0.224634 0.384353
H17   H     H_    0.831286 0.862263 0.777365 0.379310
H18   H     H_    0.160293 0.779498 0.601299 0.368103
H19   H     H_    0.665600 0.373207 0.450114 0.364486
H20   H     H_    0.731572 0.885184 0.427622 0.387741
H21   H     H_    0.225681 0.324847 0.574359 0.366091
H22   H     H_    0.208775 0.132573 0.427180 0.392424
H23   H     H_    0.619272 0.953760 0.497125 0.183837
H24   H     H_    0.734823 0.679996 0.488134 0.390114
H25   H     H_    0.689718 0.356751 0.585051 0.313531
H26   H     H_    0.245295 0.715360 0.438984 0.361840
H27   H     H_    0.592335 0.163996 0.125778 0.399789
H28   H     H_    0.171838 0.890640 0.795400 0.386078
H29   H     H_    0.239986 0.382389 0.933150 0.389176
H30   H     H_    0.672608 0.781502 0.097812 0.358403
H31   H     H_    0.682265 0.685587 0.904988 0.363279
H32   H     H_    0.230602 0.179766 0.985892 0.375055
H33   H     H_    0.239798 0.622264 0.058044 0.391972
H34   H     H_    0.380801 0.046233 0.502949 0.182072
H35   H     H_    0.822057 0.173328 0.950055 0.377548
H36   H     H_    0.679239 0.095708 0.368818 0.382702
H37   H     H_    0.368449 0.927241 0.741689 0.395574
H38   H     H_    0.392105 0.157121 0.768064 0.348873
H39   H     H_    0.760987 0.600900 0.235512 0.361893
H40   H     H_    0.587895 0.886349 0.832490 0.410803
H41   H     H_    0.459537 0.156411 0.127056 0.406764
H42   H     H_    0.478396 0.772722 0.100777 0.410689
H43   H     H_    0.622459 0.084641 0.760088 0.400033
H44   H     H_    0.174884 0.572499 0.727181 0.404594
H45   H     H_    0.880961 0.452796 0.001373 0.197483
H46   H     H_    0.884811 0.423159 0.259641 0.397514
H47   H     H_    0.977877 0.736425 0.403760 0.426449
H48   H     H_    0.167228 0.124201 0.648523 0.352087
H49   H     H_    0.069515 0.348903 0.371106 0.426502
H50   H     H_    0.947041 0.619480 0.671956 0.415698
H51   H     H_    0.904170 0.404985 0.693921 0.403658
H52   H     H_    0.257690 0.891974 0.292362 0.362280
H53   H     H_    0.119122 0.547219 0.998226 0.190448
H54   H     H_    0.119306 0.453771 0.998251 0.184712
H55   H     H_    0.880770 0.546218 0.001322 0.196804
H56   H     H_    0.681752 0.606920 0.772003 0.378762
O1    O     O_3   0.500000 0.750040 0.500000 -0.575886
O2    O     O_R   0.414580 0.719700 0.353880 -0.565551
O3    O     O_3   0.825740 0.899839 0.784134 -0.437931
O4    O     O_2   0.253002 0.668906 0.567769 -0.191228
O5    O     O_2   0.130642 0.677970 0.620943 -0.146846
O6    O     O_3   0.192964 0.759066 0.569408 -0.465970
O7    O     O_2   0.811117 0.364844 0.398072 -0.134480
O8    O     O_2   0.709928 0.392647 0.320335 -0.220526
O9    O     O_3   0.680014 0.338564 0.432761 -0.581848
O10   O     O_2   0.787045 0.793729 0.464212 -0.202047
O11   O     O_2   0.863595 0.843606 0.382018 -0.129570
O12   O     O_3   0.724738 0.863038 0.384167 -0.506691
O13   O     O_R   0.414580 0.280300 0.353880 -0.550078
O14   O     O_2   0.213246 0.195708 0.549261 -0.182827
O15   O     O_2   0.115636 0.254476 0.588237 -0.138560
O16   O     O_3   0.240250 0.293581 0.547087 -0.499893
O17   O     O_2   0.148142 0.235464 0.432932 -0.092478
O18   O     O_2   0.126533 0.176221 0.332515 -0.213569
O19   O     O_3   0.241586 0.160611 0.410714 -0.495944
O20   O     O_2   0.856017 0.694356 0.569208 -0.149880
O21   O     O_2   0.768049 0.629595 0.611761 -0.208738
O22   O     O_3   0.720518 0.701633 0.530143 -0.580156
O23   O     O_2   0.864783 0.313726 0.587382 -0.099316
O24   O     O_R   0.585420 0.719700 0.646120 -0.597852
O25   O     O_2   0.755901 0.273531 0.537247 -0.253047
O26   O     O_3   0.742539 0.364526 0.593534 -0.478345
O27   O     O_2   0.226242 0.820804 0.442902 -0.202120
O28   O     O_2   0.112318 0.796245 0.381094 -0.166782
O29   O     O_3   0.192746 0.723102 0.430452 -0.412935
O30   O     O_2   0.706589 0.248868 0.064873 -0.173442
O31   O     O_2   0.720877 0.155921 0.081319 -0.143852
O32   O     O_3   0.605450 0.200524 0.134467 -0.453073
O33   O     O_2   0.221557 0.823237 0.943194 -0.265683
O34   O     O_2   0.298530 0.882773 0.877590 -0.150160
O35   O     O_R   0.085420 0.219700 0.853880 -0.573696
O36   O     O_3   0.160527 0.878280 0.844612 -0.505647
O37   O     O_2   0.289345 0.287974 0.960399 -0.198476
O38   O     O_2   0.366932 0.337129 0.877838 -0.150734
O39   O     O_3   0.230031 0.362526 0.888120 -0.518927
O40   O     O_2   0.736611 0.659700 0.071417 -0.169074
O41   O     O_2   0.618704 0.686405 0.122656 -0.167513
O42   O     O_3   0.701043 0.756901 0.067841 -0.453398
O43   O     O_2   0.738805 0.807033 0.948550 -0.196610
O44   O     O_2   0.616516 0.779278 0.907748 -0.156022
O45   O     O_3   0.710103 0.709030 0.937793 -0.425467
O46   O     O_R   0.914580 0.780300 0.146120 -0.561357
O47   O     O_2   0.353532 0.212241 0.053129 -0.161644
O48   O     O_2   0.292503 0.137189 0.105081 -0.212728
O49   O     O_3   0.214655 0.198941 0.029634 -0.587829
O50   O     O_2   0.287912 0.717518 0.032917 -0.215964
O51   O     O_2   0.369851 0.666617 0.108988 -0.134508
O52   O     O_3   0.233000 0.640725 0.104664 -0.496309
O53   O     O_2   0.650315 0.218408 0.926673 -0.128486
O54   O     O_2   0.701531 0.135999 0.889905 -0.129472
O55   O     O_3   0.784330 0.199276 0.961436 -0.496349
O56   O     O_2   0.588259 0.150843 0.286883 -0.281912
O57   O     O_R   0.914580 0.219700 0.146120 -0.619452
O58   O     O_2   0.689293 0.110374 0.220450 -0.161859
O59   O     O_3   0.706788 0.127590 0.357625 -0.477774
O60   O     O_2   0.415741 0.845648 0.817783 -0.169021
O61   O     O_2   0.427135 0.838328 0.687095 -0.305214
O62   O     O_3   0.329424 0.900646 0.736963 -0.521260
O63   O     O_2   0.470693 0.275235 0.787542 -0.118675
O64   O     O_2   0.408350 0.224836 0.880168 -0.173414
O65   O     O_3   0.431961 0.181577 0.755587 -0.508582
O66   O     O_2   0.674757 0.627483 0.350434 -0.310578
O67   O     O_2   0.584567 0.640824 0.254130 -0.128509
O68   O     O_R   0.085420 0.780300 0.853880 -0.585212
O69   O     O_3   0.708799 0.599234 0.219717 -0.455891
O70   O     O_2   0.608354 0.851226 0.692113 -0.288087
O71   O     O_2   0.544784 0.794785 0.776894 -0.203187
O72   O     O_3   0.633418 0.865719 0.828340 -0.418403
O73   O     O_2   0.450518 0.251366 0.155573 -0.183967
O74   O     O_2   0.469218 0.209994 0.271625 -0.281546
O75   O     O_3   0.423475 0.153346 0.166810 -0.438681
O76   O     O_2   0.456250 0.797492 0.245227 -0.332964
O77   O     O_2   0.468782 0.706943 0.211202 -0.147007
O78   O     O_3   0.425392 0.770921 0.113139 -0.450109
O79   O     O_R   0.085420 0.780300 0.146120 -0.577175
O80   O     O_2   0.572114 0.171470 0.820494 -0.138721
O81   O     O_2   0.568922 0.168636 0.689008 -0.312451
O82   O     O_3   0.662019 0.110472 0.753168 -0.452450
O83   O     O_2   0.189627 0.630811 0.849015 -0.281550
O84   O     O_2   0.085349 0.651632 0.770355 -0.240945
O85   O     O_3   0.198309 0.605461 0.713641 -0.445323
O86   O     O_2   0.923694 0.334843 0.319686 -0.190574
O87   O     O_2   0.930768 0.335054 0.188445 -0.312193
O88   O     O_3   0.843027 0.399564 0.249124 -0.457465
O89   O     O_2   0.958397 0.707851 0.262162 -0.329052
O90   O     O_R   0.914580 0.219700 0.853880 -0.584919
O91   O     O_2   0.966081 0.800003 0.288167 -0.128691
O92   O     O_3   0.924950 0.739432 0.391343 -0.448855
O93   O     O_2   0.112785 0.140336 0.777324 -0.318341
O94   O     O_2   0.038869 0.205302 0.715258 -0.124276
O95   O     O_3   0.124557 0.146900 0.639650 -0.411009
O96   O     O_2   0.090971 0.339781 0.226666 -0.281223
O97   O     O_2   0.040359 0.263317 0.285377 -0.179053
O98   O     O_3   0.115135 0.328776 0.364141 -0.468396
O99   O     O_2   0.957787 0.721201 0.684141 -0.196130
O100  O     O_2   0.940688 0.676052 0.798044 -0.322858
O101  O     O_R   0.914580 0.780300 0.853880 -0.585200
O102  O     O_3   0.896188 0.630938 0.682431 -0.426349
O103  O     O_2   0.904168 0.349182 0.819539 -0.333290
O104  O     O_2   0.952776 0.308857 0.710026 -0.218145
O105  O     O_3   0.858982 0.383719 0.698005 -0.426855
O106  O     O_2   0.187659 0.873622 0.164917 -0.269021
O107  O     O_2   0.084430 0.855837 0.244894 -0.154755
O108  O     O_3   0.204128 0.892112 0.302459 -0.465561
O109  O     O_3   0.500000 0.249960 0.500000 -0.567851
O110  O     O_R   0.085420 0.219700 0.146120 -0.581564
O111  O     O_R   0.646120 0.780390 0.585510 -0.564565
O112  O     O_R   0.353880 0.219610 0.414490 -0.565237
O113  O     O_R   0.353880 0.780390 0.414490 -0.626014
O114  O     O_R   0.646120 0.219610 0.585510 -0.570812
O115  O     O_R   0.646120 0.219610 0.414490 -0.579256
O116  O     O_R   0.353880 0.780390 0.585510 -0.587888
O117  O     O_R   0.353880 0.219610 0.585510 -0.588896
O118  O     O_R   0.646120 0.780390 0.414490 -0.578633
O119  O     O_R   0.146120 0.280390 0.085510 -0.586887
O120  O     O_3   0.000000 0.250040 0.000000 -0.570954
O121  O     O_R   0.853880 0.719610 0.914490 -0.574406
O122  O     O_R   0.853880 0.280390 0.914490 -0.574414
O123  O     O_R   0.146120 0.719610 0.085510 -0.589658
O124  O     O_R   0.146120 0.719610 0.914490 -0.577265
O125  O     O_R   0.853880 0.280390 0.085510 -0.573548
O126  O     O_R   0.853880 0.719610 0.085510 -0.583895
O127  O     O_R   0.146120 0.280390 0.914490 -0.573237
O128  O     O_R   0.560660 0.865840 0.500000 -0.631434
O129  O     O_R   0.439340 0.134160 0.500000 -0.642434
O130  O     O_R   0.439340 0.865840 0.500000 -0.626074
O131  O     O_3   0.000000 0.749960 0.000000 -0.579211
O132  O     O_R   0.560660 0.134160 0.500000 -0.627030
O133  O     O_R   0.060660 0.365840 0.000000 -0.640915
O134  O     O_R   0.939340 0.634160 0.000000 -0.636035
O135  O     O_R   0.939340 0.365840 0.000000 -0.616438
O136  O     O_R   0.060660 0.634160 0.000000 -0.628665
O137  O     O_R   0.500000 0.634240 0.439310 -0.617445
O138  O     O_R   0.500000 0.365760 0.560690 -0.621696
O139  O     O_R   0.500000 0.634240 0.560690 -0.617804
O140  O     O_R   0.500000 0.365760 0.439310 -0.610526
O141  O     O_R   0.000000 0.134240 0.939310 -0.624903
O142  O     O_R   0.585420 0.719700 0.353880 -0.569027
O143  O     O_R   0.000000 0.865760 0.060690 -0.604094
O144  O     O_R   1.000000 0.134240 0.060690 -0.610556
O145  O     O_R   0.000000 0.865760 0.939310 -0.597811
O146  O     O_2   0.542982 0.631426 0.742214 -0.238225
O147  O     O_2   0.554402 0.561954 0.830020 -0.152610
O148  O     O_3   0.662960 0.578154 0.741481 -0.480005
O149  O     O_2   0.387064 0.368338 0.267672 -0.263961
O150  O     O_2   0.345105 0.439888 0.193480 -0.172312
O151  O     O_3   0.485684 0.421205 0.201221 -0.486643
O152  O     O_2   0.333004 0.551154 0.205115 -0.136228
O153  O     O_R   0.414580 0.280300 0.646120 -0.568345
O154  O     O_2   0.440042 0.604092 0.236801 -0.166952
O155  O     O_3   0.462294 0.520040 0.165795 -0.412826
O156  O     O_2   0.658428 0.476347 0.780759 -0.183661
O157  O     O_2   0.539754 0.448741 0.829403 -0.109871
O158  O     O_3   0.606114 0.388336 0.738755 -0.466089
O159  O     O_2   0.081888 0.097826 0.212131 -0.251552
O160  O     O_2   0.990670 0.092766 0.308855 -0.173492
O161  O     O_3   0.085901 0.018747 0.296702 -0.487274
O162  O     O_2   0.982561 0.870500 0.754914 -0.261937
O163  O     O_2   0.933376 0.933537 0.670142 -0.149956
O164  O     O_R   0.414580 0.719700 0.646120 -0.577746
O165  O     O_3   0.072264 0.938732 0.704450 -0.533588
O166  O     O_2   0.900256 0.037740 0.674603 -0.126990
O167  O     O_2   0.964327 0.110421 0.730892 -0.149631
O168  O     O_3   0.042961 0.038677 0.672566 -0.419136
O169  O     O_2   0.936485 0.998379 0.346048 -0.183713
O170  O     O_2   0.842489 0.944648 0.291104 -0.137339
O171  O     O_3   0.971815 0.905616 0.310482 -0.393873
O172  O     O_2   0.338931 0.629947 0.333209 -0.262789
O173  O     O_2   0.273418 0.557881 0.385344 -0.151953
O174  O     O_3   0.342436 0.619011 0.472528 -0.482573
O175  O     O_R   0.585420 0.280300 0.353880 -0.581757
O176  O     O_2   0.459753 0.366893 0.713189 -0.165753
O177  O     O_2   0.389556 0.444647 0.737326 -0.193025
O178  O     O_3   0.364631 0.396172 0.616452 -0.495571
O179  O     O_2   0.372216 0.621884 0.625835 -0.230909
O180  O     O_2   0.339930 0.534179 0.656869 -0.178230
O181  O     O_3   0.398324 0.591962 0.756820 -0.451344
O182  O     O_2   0.350448 0.354886 0.437982 -0.330733
O183  O     O_2   0.296537 0.435067 0.480509 -0.166812
O184  O     O_3   0.267936 0.406429 0.349130 -0.442932
O185  O     O_2   0.861501 0.128506 0.832984 -0.236921
O186  O     O_R   0.585420 0.280300 0.646120 -0.608476
O187  O     O_2   0.806886 0.043809 0.817777 -0.175026
O188  O     O_3   0.821755 0.079254 0.948392 -0.493829
O189  O     O_2   0.870447 0.868136 0.195716 -0.221975
O190  O     O_2   0.789487 0.934574 0.149138 -0.184978
O191  O     O_3   0.849134 0.873034 0.057401 -0.536288
O192  O     O_2   0.859985 0.128777 0.082699 -0.283012
O193  O     O_2   0.805330 0.049726 0.127105 -0.159622
O194  O     O_3   0.858173 0.114016 0.221526 -0.452134
O195  O     O_2   0.857428 0.863757 0.911001 -0.290031
O196  O     O_2   0.798396 0.946798 0.904788 -0.184669
S1    S     S_3+6 0.571230 0.577944 0.753976 0.148538
S2    S     S_3+6 0.427338 0.413738 0.679336 0.154354
S3    S     S_3+6 0.395952 0.576238 0.668360 0.161606
S4    S     S_3+6 0.330742 0.408529 0.416427 0.131436
S5    S     S_3+6 0.857390 0.075979 0.864653 0.123723
S6    S     S_3+6 0.859528 0.905547 0.135573 0.124309
S7    S     S_3+6 0.866955 0.087759 0.138542 0.124342
S8    S     S_3+6 0.854296 0.912586 0.869242 0.142616
S9    S     S_3+6 0.204752 0.703171 0.612358 0.148431
S10   S     S_3+6 0.738989 0.348966 0.364474 0.146052
S11   S     S_3+6 0.790145 0.817706 0.390687 0.168619
S12   S     S_3+6 0.404318 0.422157 0.244326 0.147839
S13   S     S_3+6 0.197261 0.244906 0.589054 0.153243
S14   S     S_3+6 0.185171 0.204646 0.374774 0.172198
S15   S     S_3+6 0.779189 0.685735 0.596753 0.130932
S16   S     S_3+6 0.783434 0.306863 0.598512 0.155994
S17   S     S_3+6 0.191428 0.781661 0.392928 0.159196
S18   S     S_3+6 0.695991 0.205136 0.116160 0.175610
S19   S     S_3+6 0.235731 0.845451 0.869794 0.129027
S20   S     S_3+6 0.291525 0.314359 0.888613 0.150037
S21   S     S_3+6 0.698045 0.701523 0.112939 0.161562
S22   S     S_3+6 0.697451 0.767954 0.903850 0.164369
S23   S     S_3+6 0.412051 0.549960 0.229480 0.208803
S24   S     S_3+6 0.284539 0.193362 0.088994 0.124215
S25   S     S_3+6 0.294274 0.689481 0.103343 0.172417
S26   S     S_3+6 0.718091 0.192334 0.898212 0.204736
S27   S     S_3+6 0.670410 0.148198 0.279395 0.115171
S28   S     S_3+6 0.373142 0.844410 0.747901 0.113078
S29   S     S_3+6 0.411404 0.236023 0.800621 0.158519
S30   S     S_3+6 0.665095 0.642238 0.272574 0.131071
S31   S     S_3+6 0.615700 0.822619 0.761935 0.133661
S32   S     S_3+6 0.420220 0.211806 0.206305 0.147655
S33   S     S_3+6 0.423418 0.754319 0.200803 0.127917
S34   S     S_3+6 0.587225 0.449276 0.763025 0.192066
S35   S     S_3+6 0.618910 0.167524 0.753893 0.144195
S36   S     S_3+6 0.167741 0.648528 0.774905 0.093019
S37   S     S_3+6 0.879317 0.340312 0.251467 0.131317
S38   S     S_3+6 0.923178 0.751834 0.302236 0.137880
S39   S     S_3+6 0.112557 0.179283 0.717767 0.145325
S40   S     S_3+6 0.104834 0.299720 0.283008 0.128801
S41   S     S_3+6 0.906146 0.687526 0.726084 0.133108
S42   S     S_3+6 0.885074 0.331465 0.744129 0.108893
S43   S     S_3+6 0.166522 0.853895 0.238139 0.129339
S44   S     S_3+6 0.033245 0.062038 0.254066 0.130750
S45   S     S_3+6 0.986069 0.925694 0.731866 0.131937
S46   S     S_3+6 0.966376 0.053358 0.718934 0.220402
S47   S     S_3+6 0.923109 0.957834 0.289003 0.214178
S48   S     S_3+6 0.342268 0.590019 0.391046 0.136259
Zn1   Zn    Zn3+2 0.500000 0.706650 0.586810 1.145192
Zn2   Zn    Zn3+2 0.413290 0.206580 0.500000 1.141109
Zn3   Zn    Zn3+2 0.413290 0.793420 0.500000 1.098357
Zn4   Zn    Zn3+2 0.586710 0.206580 0.500000 1.142705
Zn5   Zn    Zn3+2 0.086710 0.293420 0.000000 1.118724
Zn6   Zn    Zn3+2 0.913290 0.706580 0.000000 1.135133
Zn7   Zn    Zn3+2 0.913290 0.293420 0.000000 1.152218
Zn8   Zn    Zn3+2 0.086710 0.706580 0.000000 1.124870
Zn9   Zn    Zn3+2 0.500000 0.293350 0.413190 1.162405
Zn10  Zn    Zn3+2 0.500000 0.706650 0.413190 1.130824
Zn11  Zn    Zn3+2 0.500000 0.293350 0.586810 1.141647
Zn12  Zn    Zn3+2 0.000000 0.206650 0.086810 1.142483
Zn13  Zn    Zn3+2 0.000000 0.793350 0.913190 1.173870
Zn14  Zn    Zn3+2 0.000000 0.206650 0.913190 1.136467
Zn15  Zn    Zn3+2 0.000000 0.793350 0.086810 1.165246
Zn16  Zn    Zn3+2 0.586710 0.793420 0.500000 1.127415

loop_
_geom_bond_atom_site_label_1
_geom_bond_atom_site_label_2
_ccdc_geom_bond_type
C62   C83   A    
C65   S4    S    
O105  S42   S    
O16   S13   S    
H8    O171  S    
O131  Zn13  S    
C3    C105  A    
O184  S4    S    
O72   S31   S    
C34   C102  S    
O80   S35   D    
H37   O62   S    
O183  S4    D    
C24   C96   A    
H16   O194  S    
C61   O143  A    
O179  S3    D    
C57   O139  A    
C109  S26   S    
O58   S27   D    
O99   S41   D    
C40   C43   A    
O111  Zn16  S    
H42   O78   S    
C107  S24   S    
O47   S24   D    
H48   O95   S    
O77   S33   D    
O15   S13   D    
O45   S22   S    
O127  Zn5   S    
C70   C84   A    
O186  Zn11  S    
O125  Zn7   S    
O1    Zn10  S    
O35   Zn14  S    
H15   O191  S    
C22   C47   S    
O73   S32   D    
O42   S21   S    
C44   H45   S    
C11   S39   S    
O96   S40   D    
O13   Zn9   S    
C1    O118  A    
O193  S7    D    
C29   C69   S    
O27   S17   D    
H19   O9    S    
C50   C53   S    
O48   S24   D    
C68   S7    S    
C71   S23   S    
C86   C90   A    
H3    O155  S    
O166  S46   D    
C58   O114  A    
C101  C110  A    
O68   Zn13  S    
H18   O6    S    
O162  S45   D    
C99   S16   S    
O173  S48   D    
C102  O35   A    
O31   S18   D    
H21   O16   S    
O92   S38   S    
O120  Zn5   S    
O144  Zn12  S    
C24   C25   S    
C38   C109  A    
C12   C97   A    
O90   Zn14  S    
C2    O46   A    
O132  Zn4   S    
O62   S28   S    
O25   S16   D    
O178  S2    S    
O185  S5    D    
O106  S43   D    
C54   O132  A    
H6    O165  S    
C91   O24   A    
C68   C77   A    
O120  Zn14  S    
C36   O164  A    
C3    C26   A    
C55   O133  A    
C8    C93   A    
O2    Zn10  S    
C72   C73   A    
C60   O144  A    
O20   S15   D    
C21   C35   S    
O123  Zn8   S    
O121  Zn6   S    
O167  S46   D    
C13   O57   A    
O151  S12   S    
C110  S27   S    
O14   S13   D    
C15   S42   S    
H46   O88   S    
C35   C107  A    
C100  S17   S    
O126  Zn6   S    
C25   O153  A    
C23   C36   S    
O134  Zn6   S    
O5    S9    D    
O124  Zn8   S    
C64   S3    S    
H2    O151  S    
C20   O101  A    
C44   C48   A    
C28   C97   A    
C1    O142  A    
O119  Zn5   S    
C65   C79   A    
O146  S1    D    
O172  S48   D    
C13   C32   S    
C24   C112  A    
O21   S15   D    
C101  S18   S    
C8    S36   S    
C85   C86   A    
C27   C91   S    
O43   S22   D    
O56   S27   D    
H28   O36   S    
O112  Zn2   S    
O46   Zn15  S    
O192  S7    D    
O120  Zn7   S    
O53   S26   D    
O36   S19   S    
O174  S48   S    
C18   O79   A    
O159  S44   D    
C19   O122  A    
C64   C73   A    
C73   S1    S    
H56   O148  S    
O41   S21   D    
H31   O45   S    
O110  Zn12  S    
C44   C52   A    
O59   S27   S    
C68   C85   A    
C22   C94   A    
C75   S46   S    
O89   S38   D    
C84   C90   A    
C53   O130  A    
O1    Zn1   S    
C85   C92   A    
C62   S48   S    
C14   C98   A    
C60   C92   S    
C39   C108  A    
C83   C89   A    
O158  S34   S    
C63   C82   A    
O122  Zn7   S    
O61   S28   D    
C104  C112  A    
H27   O32   S    
C16   C100  A    
O115  Zn4   S    
C4    C106  A    
O116  Zn3   S    
C65   C74   A    
C23   C93   A    
O11   S11   D    
C40   H1    S    
O152  S23   D    
O19   S14   S    
O29   S17   S    
O64   S29   D    
C12   C35   A    
C91   O111  A    
C47   O115  A    
C42   C50   A    
H5    O161  S    
O54   S26   D    
H20   O12   S    
H41   O75   S    
C1    C26   S    
O76   S33   D    
C4    C27   A    
H4    O158  S    
H44   O85   S    
C17   O68   A    
H25   O26   S    
C53   O128  A    
C8    C31   A    
O155  S23   S    
O188  S5    S    
O32   S18   S    
O117  Zn2   S    
O136  Zn8   S    
O3    S8    S    
C23   C111  A    
C13   O125  A    
O34   S19   D    
O108  S43   S    
O194  S7    S    
O120  Zn12  S    
O71   S31   D    
O137  Zn10  S    
O75   S32   S    
C20   C37   S    
O175  Zn9   S    
C48   H55   S    
C10   C95   A    
C82   C88   A    
O102  S41   S    
C61   O145  A    
C62   C71   A    
O23   S16   D    
C10   C33   A    
O63   S29   D    
C25   O117  A    
C98   S15   S    
C64   C81   A    
O85   S36   S    
O129  Zn2   S    
H26   O29   S    
O91   S38   D    
O138  Zn11  S    
C32   C101  A    
C105  S21   S    
C95   S11   S    
O1    Zn3   S    
C9    C94   A    
H14   O188  S    
C4    S31   S    
C11   C96   A    
O83   S36   D    
C97   S14   S    
O189  S6    D    
O74   S32   D    
C41   C42   A    
O130  Zn3   S    
H9    O174  S    
C3    S30   S    
C45   C46   A    
C61   C90   S    
C57   C89   S    
O82   S35   S    
C41   H12   S    
O1    Zn16  S    
O171  S47   S    
C5    S32   S    
C103  C111  A    
C41   C49   A    
O133  Zn5   S    
C9    C32   A    
O28   S17   D    
C56   O134  A    
C22   C110  A    
O113  Zn3   S    
O39   S20   S    
C78   S45   S    
O114  Zn4   S    
C76   S47   S    
O145  Zn13  S    
O51   S25   D    
C52   C55   S    
C81   C89   A    
C12   S40   S    
C63   S2    S    
O101  Zn13  S    
C7    C30   A    
C87   C92   A    
O87   S37   D    
C79   C88   A    
C16   S43   S    
O95   S39   S    
C33   C105  A    
C60   O141  A    
O40   S21   D    
O157  S34   D    
O177  S2    D    
O139  Zn1   S    
O7    S10   D    
C42   H23   S    
C18   C39   S    
H29   O39   S    
O190  S6    D    
C19   C38   S    
O57   Zn12  S    
C58   O186  A    
C72   S34   S    
O118  Zn16  S    
O141  Zn14  S    
O170  S47   D    
C2    C33   S    
O44   S22   D    
O22   S15   S    
O161  S44   S    
C17   C31   S    
C111  S28   S    
O65   S29   S    
H35   O55   S    
O154  S23   D    
H51   O105  S    
O153  Zn11  S    
O84   S36   D    
C67   C86   A    
H7    O168  S    
C46   H54   S    
C29   C100  A    
O33   S19   D    
H22   O19   S    
H52   O108  S    
O52   S25   S    
O79   Zn15  S    
C71   C74   A    
O180  S3    D    
C17   O124  A    
O88   S37   S    
H38   O65   S    
C103  S19   S    
C18   O123  A    
O169  S47   D    
O17   S14   D    
H32   O49   S    
C43   H34   S    
C21   O110  A    
C14   C37   A    
C79   C83   A    
O94   S39   D    
H11   O181  S    
C55   O135  A    
O37   S20   D    
C93   S9    S    
C56   O136  A    
C40   C50   A    
C66   C75   A    
C77   S44   S    
O147  S1    D    
O195  S8    D    
C16   C39   A    
C6    C29   A    
C63   C72   A    
H13   O184  S    
C80   O112  A    
H10   O178  S    
C45   H53   S    
O98   S40   S    
O24   Zn1   S    
O12   S11   S    
C27   C98   A    
H47   O92   S    
O93   S39   D    
C70   C78   A    
O109  Zn2   S    
C2    O126  A    
C104  S20   S    
C84   C87   A    
O55   S26   S    
C19   O90   A    
C81   C82   A    
C6    S33   S    
H33   O52   S    
O4    S9    D    
C10   S38   S    
C20   O121  A    
O86   S37   D    
C5    C107  A    
C45   C51   A    
C49   C54   S    
C46   C52   A    
O109  Zn9   S    
C51   C56   S    
O176  S2    D    
C106  S22   S    
C59   C88   S    
O148  S1    S    
O165  S45   S    
C48   C51   A    
C69   O113  A    
O69   S30   S    
O160  S44   D    
O107  S43   D    
O156  S34   D    
O50   S25   D    
C74   S12   S    
O150  S12   D    
O135  Zn7   S    
O131  Zn8   S    
C108  S25   S    
O149  S12   D    
C94   S10   S    
H36   O59   S    
O142  Zn10  S    
C112  S29   S    
C14   S41   S    
O143  Zn15  S    
C59   O140  A    
H43   O82   S    
H39   O69   S    
O164  Zn1   S    
O191  S6    S    
C76   C77   A    
C36   O116  A    
C66   C87   A    
O131  Zn15  S    
C43   C49   A    
C30   C99   A    
C34   C104  A    
C7    C109  A    
H24   O22   S    
C31   C103  A    
C15   C38   A    
C66   S5    S    
O140  Zn9   S    
C5    C28   A    
O163  S45   D    
H40   O72   S    
H49   O98   S    
O30   S18   D    
O67   S30   D    
C7    S35   S    
C80   O13   A    
C57   O137  A    
C21   O119  A    
C54   O129  A    
C96   S13   S    
C67   S6    S    
O181  S3    S    
O109  Zn4   S    
H30   O42   S    
O10   S11   D    
O128  Zn16  S    
C26   C95   A    
H50   O102  S    
O8    S10   D    
O100  S41   D    
H17   O3    S    
C11   C34   A    
O60   S28   D    
O6    S9    S    
C15   C99   A    
O187  S5    D    
O168  S46   S    
C102  O127  A    
O81   S35   D    
O97   S40   D    
O9    S10   S    
O109  Zn11  S    
O78   S33   S    
O196  S8    D    
O38   S20   D    
C37   C106  A    
O49   S24   S    
C9    S37   S    
C30   C58   S    
O182  S4    D    
O70   S31   D    
C69   O2    A    
C59   O138  A    
C28   C80   S    
C75   C78   A    
O26   S16   S    
O66   S30   D    
O18   S14   D    
O131  Zn6   S    
C6    C108  A    
O104  S42   D    
C67   C76   A    
C70   S8    S    
O103  S42   D    
C47   O175  A    
